                                  MODFLOW-2005     
      U.S. GEOLOGICAL SURVEY MODULAR FINITE-DIFFERENCE GROUND-WATER FLOW MODEL
                            VERSION 1.11.00 8/8/2013

 LIST FILE: output/output_tr.dat
                         UNIT    3

 OPENING model/discret_tr.dat
 FILE TYPE:DIS   UNIT  105   STATUS:OLD    
 FORMAT:FORMATTED              ACCESS:SEQUENTIAL          

 OPENING model/bas6.dat
 FILE TYPE:BAS6   UNIT    1   STATUS:OLD    
 FORMAT:FORMATTED              ACCESS:SEQUENTIAL          

 OPENING model/bcf6_tr.dat
 FILE TYPE:BCF6   UNIT   11   STATUS:OLD    
 FORMAT:FORMATTED              ACCESS:SEQUENTIAL          

 OPENING model/pcg2.dat
 FILE TYPE:PCG   UNIT   23   STATUS:OLD    
 FORMAT:FORMATTED              ACCESS:SEQUENTIAL          

 OPENING model/drn6.dat
 FILE TYPE:DRN   UNIT   13   STATUS:OLD    
 FORMAT:FORMATTED              ACCESS:SEQUENTIAL          

 OPENING model/riv6.dat
 FILE TYPE:RIV   UNIT   14   STATUS:OLD    
 FORMAT:FORMATTED              ACCESS:SEQUENTIAL          

 OPENING model/evt6.dat
 FILE TYPE:EVT   UNIT   15   STATUS:OLD    
 FORMAT:FORMATTED              ACCESS:SEQUENTIAL          

 OPENING model/rch6.dat
 FILE TYPE:RCH   UNIT   18   STATUS:OLD    
 FORMAT:FORMATTED              ACCESS:SEQUENTIAL          

 OPENING model/oc_tr.dat
 FILE TYPE:OC   UNIT   22   STATUS:OLD    
 FORMAT:FORMATTED              ACCESS:SEQUENTIAL          

 OPENING output/budget_tr.dat
 FILE TYPE:DATA(BINARY)   UNIT   50   STATUS:UNKNOWN
 FORMAT:BINARY                 ACCESS:SEQUENTIAL          

 OPENING output/head_tr.dat
 FILE TYPE:DATA(BINARY)   UNIT   51   STATUS:UNKNOWN
 FORMAT:BINARY                 ACCESS:SEQUENTIAL          

 BAS -- BASIC PACKAGE, VERSION 7, 5/2/2005 INPUT READ FROM UNIT    1
 
 MODFLOW was compiled using mixed precision
 Precision of REAL variables:           6
 Precision of DOUBLE PRECISION variables:          15

 DISCRETIZATION INPUT DATA READ FROM UNIT  105
 # Discretization file for MODFLOW-2000, generated by PMWIN
    1 LAYERS       129 ROWS       156 COLUMNS
    1 STRESS PERIOD(S) IN SIMULATION
 MODEL TIME UNIT IS DAYS
 MODEL LENGTH UNIT IS UNDEFINED
  Confining bed flag for each layer:
   0



                               DELR
 READING ON UNIT  105 WITH FORMAT: (15G14.0)           



                               DELC
 READING ON UNIT  105 WITH FORMAT: (15G14.0)           



           TOP ELEVATION OF LAYER 1
 READING ON UNIT  105 WITH FORMAT: (15G14.0)           



             MODEL LAYER BOTTOM EL. FOR LAYER   1
 READING ON UNIT  105 WITH FORMAT: (15G14.0)           


 STRESS PERIOD     LENGTH       TIME STEPS     MULTIPLIER FOR DELT    SS FLAG
 ----------------------------------------------------------------------------
        1         3650.000         10                    1.000         TR

 TRANSIENT SIMULATION



 
 # Basic package file for MODFLOW-2000, generated by PMWIN                       
 THE FREE FORMAT OPTION HAS BEEN SELECTED



                     BOUNDARY ARRAY FOR LAYER   1
 READING ON UNIT    1 WITH FORMAT: (15I3)              

 AQUIFER HEAD WILL BE SET TO  -999.99     AT ALL NO-FLOW NODES (IBOUND=0).



                       INITIAL HEAD FOR LAYER   1
 READING ON UNIT    1 WITH FORMAT: (15G14.0)           

 OUTPUT CONTROL IS SPECIFIED EVERY TIME STEP
 HEAD PRINT FORMAT CODE IS   0    DRAWDOWN PRINT FORMAT CODE IS   0
 HEADS WILL BE SAVED ON UNIT   51    DRAWDOWNS WILL BE SAVED ON UNIT   52

 BCF -- BLOCK-CENTERED FLOW PACKAGE, VERSION 7, 5/2/2005
         INPUT READ FROM UNIT 11
 TRANSIENT SIMULATION
 CELL-BY-CELL FLOWS WILL BE SAVED ON UNIT 50
 HEAD AT CELLS THAT CONVERT TO DRY=  0.10000E+31
 WETTING CAPABILITY IS ACTIVE
 WETTING FACTOR=   1.00000     WETTING ITERATION INTERVAL=   2
 FLAG THAT SPECIFIES THE EQUATION TO USE FOR HEAD AT WETTED CELLS=   1
      LAYER  LAYER-TYPE CODE     INTERBLOCK T
      --------------------------------------------
         1            1          0 -- HARMONIC    



           COLUMN TO ROW ANISOTROPY
 READING ON UNIT   11 WITH FORMAT: (1G14.0)            



               PRIMARY STORAGE COEF FOR LAYER   1
 READING ON UNIT   11 WITH FORMAT: (15G14.0)           



              HYD. COND. ALONG ROWS FOR LAYER   1
 READING ON UNIT   11 WITH FORMAT: (15G14.0)           

         WETDRY PARAMETER =   5.00000     FOR LAYER   1

 DRN -- DRAIN PACKAGE, VERSION 7, 5/2/2005 INPUT READ FROM UNIT   13
 # Drain file for MODFLOW-2000, generated by PMWIN
 #
          1 Named Parameters             42 List entries
 MAXIMUM OF     42 ACTIVE DRAINS AT ONE TIME
 CELL-BY-CELL FLOWS WILL BE SAVED ON UNIT   50


     1 Drain parameters

 PARAMETER NAME:DRN_0_1      TYPE:DRN 
 Parameter value from package file is:   1.00000    
   NUMBER OF ENTRIES:     42

 DRAIN NO.  LAYER   ROW   COL     DRAIN EL.  STRESS FACTOR         
 ------------------------------------------------------------------
      1      1     43     47       1338.          0.1000E+05
      2      1     44     47       1340.          0.1000E+05
      3      1     45     49       1340.          0.1000E+05
      4      1     46     46       1340.          0.1000E+05
      5      1     46     47       1340.          0.1000E+05
      6      1     62     84       1427.           2004.    
      7      1     63     84       1427.           2004.    
      8      1     64     84       1427.           2004.    
      9      1     65     83       1427.           2004.    
     10      1     65     84       1427.           2004.    
     11      1     66     83       1427.           2004.    
     12      1     67     82       1427.           2004.    
     13      1     67     83       1427.           2004.    
     14      1     68     82       1427.           2004.    
     15      1     69     82       1427.           2004.    
     16      1     70     82       1427.           2004.    
     17      1     78     98       1427.          0.2000E+05
     18      1     80    102       1427.          0.2000E+05
     19      1     80    103       1427.          0.2000E+05
     20      1     81    101       1427.          0.2000E+05
     21      1     81    102       1427.          0.2000E+05
     22      1     82    100       1427.          0.2000E+05
     23      1     82    101       1427.          0.2000E+05
     24      1     83    100       1427.          0.2000E+05
     25      1     86    105       1427.          0.2000E+05
     26      1     86    115       1432.          0.4370E+05
     27      1     87    105       1427.          0.2000E+05
     28      1     88    105       1427.          0.2000E+05
     29      1     88    116       1450.          0.2000E+05
     30      1     89    115       1451.          0.2000E+05
     31      1     90    117       1457.          0.2000E+05
     32      1     91    113       1453.          0.2000E+05
     33      1     91    114       1455.          0.2000E+05
     34      1     92    119       1463.          0.2000E+05
     35      1     93    113       1459.          0.2000E+05
     36      1     93    116       1463.          0.2000E+05
     37      1     93    118       1466.          0.2000E+05
     38      1     95    113       1466.          0.2000E+05
     39      1     95    116       1470.          0.2000E+05
     40      1     96    112       1469.          0.2000E+05
     41      1     97    118       1478.          0.2000E+05
     42      1    100    118       1492.          0.2000E+05

 RIV -- RIVER PACKAGE, VERSION 7, 5/2/2005 INPUT READ FROM UNIT   14
 # River file for MODFLOW-2000, generated by PMWIN
 #
          3 Named Parameters            263 List entries
 MAXIMUM OF   2263 ACTIVE RIVER REACHES AT ONE TIME
 CELL-BY-CELL FLOWS WILL BE SAVED ON UNIT   50


     3 River parameters

 PARAMETER NAME:RIV_0_1      TYPE:RIV 
 Parameter value from package file is:   1.00000    
   NUMBER OF ENTRIES:     11

 REACH NO.  LAYER   ROW   COL     STAGE    STRESS FACTOR     BOTTOM EL.         
 -------------------------------------------------------------------------------
      1      1     84    111       1435.          0.4370E+05       1434.    
      2      1     84    112       1441.          0.4370E+05       1440.    
      3      1     85    112       1440.          0.4370E+05       1439.    
      4      1     85    113       1443.          0.4370E+05       1442.    
      5      1    109     92       1640.          0.8658E+05       1639.    
      6      1    109     93       1636.          0.8658E+05       1635.    
      7      1    110     89       1694.          0.8658E+05       1693.    
      8      1    110     90       1654.          0.8658E+05       1653.    
      9      1    110     91       1668.          0.8658E+05       1667.    
     10      1    110     92       1679.          0.8658E+05       1678.    
     11      1    111     89       1676.          0.8658E+05       1675.    

 PARAMETER NAME:RIV_20_1     TYPE:RIV 
 Parameter value from package file is:   1.00000    
   NUMBER OF ENTRIES:    221

 REACH NO.  LAYER   ROW   COL     STAGE    STRESS FACTOR     BOTTOM EL.         
 -------------------------------------------------------------------------------
      1      1      8     29       1290.          0.4370E+05       1289.    
      2      1      8     30       1292.          0.4370E+05       1291.    
      3      1      9     30       1295.          0.4370E+05       1294.    
      4      1      9     31       1293.          0.4370E+05       1292.    
      5      1     10     31       1294.          0.4370E+05       1293.    
      6      1     11     31       1297.          0.4370E+05       1296.    
      7      1     11     32       1295.          0.4370E+05       1294.    
      8      1     12     32       1294.          0.4370E+05       1293.    
      9      1     12     33       1298.          0.4370E+05       1297.    
     10      1     13     33       1295.          0.4370E+05       1294.    
     11      1     14     32       1298.          0.4370E+05       1297.    
     12      1     14     33       1297.          0.4370E+05       1296.    
     13      1     15     33       1298.          0.4370E+05       1297.    
     14      1     16     33       1298.          0.4370E+05       1297.    
     15      1     16     34       1299.          0.4370E+05       1298.    
     16      1     17     34       1300.          0.4370E+05       1299.    
     17      1     17     35       1302.          0.4370E+05       1301.    
     18      1     18     35       1301.          0.4370E+05       1300.    
     19      1     18     36       1302.          0.4370E+05       1301.    
     20      1     18     37       1304.          0.4370E+05       1303.    
     21      1     18     38       1306.          0.4370E+05       1305.    
     22      1     18     39       1307.          0.4370E+05       1306.    
     23      1     19     39       1306.          0.4370E+05       1305.    
     24      1     19     40       1307.          0.4370E+05       1306.    
     25      1     20     40       1308.          0.4370E+05       1307.    
     26      1     21     40       1307.          0.4370E+05       1306.    
     27      1     22     40       1310.          0.4370E+05       1309.    
     28      1     23     40       1309.          0.4370E+05       1308.    
     29      1     24     40       1310.          0.4370E+05       1309.    
     30      1     24     41       1313.          0.4370E+05       1312.    
     31      1     25     41       1312.          0.4370E+05       1311.    
     32      1     26     41       1313.          0.4370E+05       1312.    
     33      1     26     42       1319.          0.4370E+05       1318.    
     34      1     27     42       1314.          0.4370E+05       1313.    
     35      1     28     42       1315.          0.4370E+05       1314.    
     36      1     29     42       1317.          0.4370E+05       1316.    
     37      1     30     42       1318.          0.4370E+05       1317.    
     38      1     31     41       1322.          0.4370E+05       1321.    
     39      1     31     42       1321.          0.4370E+05       1320.    
     40      1     32     41       1319.          0.4370E+05       1318.    
     41      1     32     42       1322.          0.4370E+05       1321.    
     42      1     33     41       1323.          0.4370E+05       1322.    
     43      1     33     42       1322.          0.4370E+05       1321.    
     44      1     34     42       1322.          0.4370E+05       1321.    
     45      1     34     43       1327.          0.4370E+05       1326.    
     46      1     35     43       1324.          0.4370E+05       1323.    
     47      1     36     43       1326.          0.4370E+05       1325.    
     48      1     36     44       1325.          0.4370E+05       1324.    
     49      1     37     44       1327.          0.4370E+05       1326.    
     50      1     37     45       1329.          0.4370E+05       1328.    
     51      1     38     45       1328.          0.4370E+05       1327.    
     52      1     38     46       1328.          0.4370E+05       1327.    
     53      1     38     47       1330.          0.4370E+05       1329.    
     54      1     38     48       1336.          0.4370E+05       1335.    
     55      1     39     48       1331.          0.4370E+05       1330.    
     56      1     39     49       1331.          0.4370E+05       1330.    
     57      1     40     49       1333.          0.4370E+05       1332.    
     58      1     41     49       1333.          0.4370E+05       1332.    
     59      1     41     50       1333.          0.4370E+05       1332.    
     60      1     42     50       1334.          0.4370E+05       1333.    
     61      1     43     50       1335.          0.4370E+05       1334.    
     62      1     44     50       1337.          0.4370E+05       1336.    
     63      1     44     51       1338.          0.4370E+05       1337.    
     64      1     44     52       1339.          0.4370E+05       1338.    
     65      1     45     52       1338.          0.4370E+05       1337.    
     66      1     45     53       1340.          0.4370E+05       1339.    
     67      1     46     53       1343.          0.4370E+05       1342.    
     68      1     46     54       1340.          0.4370E+05       1339.    
     69      1     46     55       1341.          0.4370E+05       1340.    
     70      1     47     55       1342.          0.4370E+05       1341.    
     71      1     47     56       1342.          0.4370E+05       1341.    
     72      1     48     56       1345.          0.4370E+05       1344.    
     73      1     48     57       1343.          0.4370E+05       1342.    
     74      1     48     58       1344.          0.4370E+05       1343.    
     75      1     49     58       1346.          0.4370E+05       1345.    
     76      1     49     59       1346.          0.4370E+05       1345.    
     77      1     49     60       1346.          0.4370E+05       1345.    
     78      1     50     60       1347.          0.4370E+05       1346.    
     79      1     50     61       1350.          0.4370E+05       1349.    
     80      1     50     62       1350.          0.4370E+05       1349.    
     81      1     50     63       1352.          0.4370E+05       1351.    
     82      1     50     64       1353.          0.4370E+05       1352.    
     83      1     51     64       1353.          0.4370E+05       1352.    
     84      1     51     65       1355.          0.4370E+05       1354.    
     85      1     51     66       1357.          0.4370E+05       1356.    
     86      1     51     67       1358.          0.4370E+05       1357.    
     87      1     51     68       1357.          0.4370E+05       1356.    
     88      1     51     69       1358.          0.4370E+05       1357.    
     89      1     51     70       1358.          0.4370E+05       1357.    
     90      1     51     71       1360.          0.4370E+05       1359.    
     91      1     51     72       1361.          0.4370E+05       1360.    
     92      1     51     73       1361.          0.4370E+05       1360.    
     93      1     51     74       1363.          0.4370E+05       1362.    
     94      1     51     75       1364.          0.4370E+05       1363.    
     95      1     51     76       1368.          0.4370E+05       1367.    
     96      1     51     77       1369.          0.4370E+05       1368.    
     97      1     52     77       1366.          0.4370E+05       1365.    
     98      1     52     78       1368.          0.4370E+05       1367.    
     99      1     53     78       1369.          0.4370E+05       1368.    
    100      1     53     79       1369.          0.4370E+05       1368.    
    101      1     54     79       1378.          0.4370E+05       1377.    
    102      1     54     80       1374.          0.4370E+05       1373.    
    103      1     54     81       1373.          0.4370E+05       1372.    
    104      1     54     82       1379.          0.4370E+05       1378.    
    105      1     55     82       1375.          0.4370E+05       1374.    
    106      1     55     83       1377.          0.4370E+05       1376.    
    107      1     56     83       1383.          0.4370E+05       1382.    
    108      1     56     84       1377.          0.4370E+05       1376.    
    109      1     56     86       1382.          0.4370E+05       1381.    
    110      1     56     87       1381.          0.4370E+05       1380.    
    111      1     56     88       1381.          0.4370E+05       1380.    
    112      1     56     89       1381.          0.4370E+05       1380.    
    113      1     57     84       1385.          0.4370E+05       1384.    
    114      1     57     85       1377.          0.4370E+05       1376.    
    115      1     57     86       1381.          0.4370E+05       1380.    
    116      1     57     89       1387.          0.4370E+05       1386.    
    117      1     57     90       1383.          0.4370E+05       1382.    
    118      1     57     91       1385.          0.4370E+05       1384.    
    119      1     57     92       1391.          0.4370E+05       1390.    
    120      1     58     89       1388.           202.0           1387.    
    121      1     58     92       1388.          0.4370E+05       1387.    
    122      1     58     93       1388.          0.4370E+05       1387.    
    123      1     59     89       1391.           202.0           1390.    
    124      1     59     93       1389.          0.4370E+05       1388.    
    125      1     59     94       1389.          0.4370E+05       1388.    
    126      1     60     89       1395.           202.0           1394.    
    127      1     60     94       1390.          0.4370E+05       1389.    
    128      1     61     89       1399.           202.0           1398.    
    129      1     61     94       1397.          0.4370E+05       1396.    
    130      1     61     95       1391.          0.4370E+05       1390.    
    131      1     62     89       1399.           202.0           1398.    
    132      1     62     95       1394.          0.4370E+05       1393.    
    133      1     62     96       1397.          0.4370E+05       1396.    
    134      1     63     89       1402.           202.0           1401.    
    135      1     63     96       1395.          0.4370E+05       1394.    
    136      1     64     89       1405.           202.0           1404.    
    137      1     64     90       1406.           202.0           1405.    
    138      1     64     96       1396.          0.4370E+05       1395.    
    139      1     64     97       1397.          0.4370E+05       1396.    
    140      1     65     90       1409.           202.0           1408.    
    141      1     65     97       1396.          0.4370E+05       1395.    
    142      1     66     90       1412.           202.0           1411.    
    143      1     66     97       1402.          0.4370E+05       1401.    
    144      1     66     98       1400.          0.4370E+05       1399.    
    145      1     67     90       1416.           202.0           1415.    
    146      1     67     98       1401.          0.4370E+05       1400.    
    147      1     67     99       1401.          0.4370E+05       1400.    
    148      1     68     89       1422.           202.0           1421.    
    149      1     68     90       1420.           202.0           1419.    
    150      1     68     99       1401.          0.4370E+05       1400.    
    151      1     69     89       1425.           202.0           1424.    
    152      1     69     99       1404.          0.4370E+05       1403.    
    153      1     69    100       1404.          0.4370E+05       1403.    
    154      1     70     88       1429.           202.0           1428.    
    155      1     70     89       1427.           202.0           1426.    
    156      1     70    100       1406.          0.4370E+05       1405.    
    157      1     70    101       1405.          0.4370E+05       1404.    
    158      1     71    101       1407.          0.4370E+05       1406.    
    159      1     71    102       1408.          0.4370E+05       1407.    
    160      1     72    102       1409.          0.4370E+05       1408.    
    161      1     73    102       1409.          0.4370E+05       1408.    
    162      1     73    103       1410.          0.4370E+05       1409.    
    163      1     73    104       1409.          0.4370E+05       1408.    
    164      1     74    104       1410.          0.4370E+05       1409.    
    165      1     74    105       1413.          0.4370E+05       1412.    
    166      1     74    106       1425.          0.4370E+05       1424.    
    167      1     75    106       1414.          0.4370E+05       1413.    
    168      1     76    106       1414.          0.4370E+05       1413.    
    169      1     77    106       1417.          0.4370E+05       1416.    
    170      1     78    106       1420.          0.4370E+05       1419.    
    171      1     79    106       1429.          0.4370E+05       1428.    
    172      1     80    106       1435.          0.4370E+05       1434.    
    173      1     80    107       1424.          0.4370E+05       1423.    
    174      1     81    107       1423.          0.4370E+05       1422.    
    175      1     81    108       1425.          0.4370E+05       1424.    
    176      1     82    108       1426.          0.4370E+05       1425.    
    177      1     82    109       1430.          0.4370E+05       1429.    
    178      1     83    109       1427.          0.4370E+05       1426.    
    179      1     83    110       1430.          0.4370E+05       1429.    
    180      1     84    110       1431.          0.4370E+05       1430.    
    181      1     85    109       1441.          0.4370E+05       1440.    
    182      1     85    110       1433.          0.4370E+05       1432.    
    183      1     86    109       1437.          0.4370E+05       1436.    
    184      1     87    109       1439.          0.4370E+05       1438.    
    185      1     88    109       1442.          0.4370E+05       1441.    
    186      1     89    109       1447.          0.4370E+05       1446.    
    187      1     90    109       1448.          0.4370E+05       1447.    
    188      1     91    108       1527.          0.2164E+05       1526.    
    189      1     91    109       1527.          0.2164E+05       1526.    
    190      1     92    107       1527.          0.2164E+05       1526.    
    191      1     92    108       1527.          0.2164E+05       1526.    
    192      1     93    106       1527.          0.2164E+05       1526.    
    193      1     93    107       1527.          0.2164E+05       1526.    
    194      1     94    106       1527.          0.2164E+05       1526.    
    195      1     95    105       1527.          0.2164E+05       1526.    
    196      1     95    106       1527.          0.2164E+05       1526.    
    197      1     96    104       1527.          0.2164E+05       1526.    
    198      1     96    105       1527.          0.2164E+05       1526.    
    199      1     97    104       1527.          0.2164E+05       1526.    
    200      1     98    103       1527.          0.2164E+05       1526.    
    201      1     98    104       1527.          0.2164E+05       1526.    
    202      1     99    102       1538.          0.2164E+05       1537.    
    203      1     99    103       1534.          0.2164E+05       1533.    
    204      1    100    101       1550.          0.2164E+05       1549.    
    205      1    100    102       1544.          0.2164E+05       1543.    
    206      1    101    101       1555.          0.2164E+05       1554.    
    207      1    102    100       1565.          0.2164E+05       1564.    
    208      1    102    101       1561.          0.2164E+05       1560.    
    209      1    103    100       1572.          0.2164E+05       1571.    
    210      1    104     98       1587.          0.2164E+05       1586.    
    211      1    104     99       1580.          0.2164E+05       1579.    
    212      1    104    100       1584.          0.2164E+05       1583.    
    213      1    105     97       1597.          0.2164E+05       1596.    
    214      1    105     98       1590.          0.2164E+05       1589.    
    215      1    106     95       1630.          0.2164E+05       1629.    
    216      1    106     96       1606.          0.2164E+05       1605.    
    217      1    106     97       1606.          0.2164E+05       1605.    
    218      1    107     94       1637.          0.2164E+05       1636.    
    219      1    107     95       1616.          0.2164E+05       1615.    
    220      1    108     94       1625.          0.2164E+05       1624.    
    221      1    109     94       1655.          0.2164E+05       1654.    

 PARAMETER NAME:RIV_21_1     TYPE:RIV 
 Parameter value from package file is:   1.00000    
   NUMBER OF ENTRIES:     31

 REACH NO.  LAYER   ROW   COL     STAGE    STRESS FACTOR     BOTTOM EL.         
 -------------------------------------------------------------------------------
      1      1     71     88       1452.           6060.           1451.    
      2      1     71     89       1452.           6060.           1451.    
      3      1     72     87       1452.           6060.           1451.    
      4      1     72     88       1452.           6060.           1451.    
      5      1     73     87       1452.           6060.           1451.    
      6      1     74     87       1452.           6060.           1451.    
      7      1     75     87       1452.           6060.           1451.    
      8      1     75     88       1453.           6060.           1452.    
      9      1     76     87       1457.           6060.           1456.    
     10      1     76     88       1458.           6060.           1457.    
     11      1     77     87       1466.           6060.           1465.    
     12      1     78     86       1476.           6060.           1475.    
     13      1     78     87       1475.           6060.           1474.    
     14      1     79     85       1493.           6060.           1492.    
     15      1     79     86       1486.           6060.           1485.    
     16      1     80     84       1510.           6060.           1509.    
     17      1     80     85       1503.           6060.           1502.    
     18      1     81     83       1529.           6060.           1528.    
     19      1     81     84       1521.           6060.           1520.    
     20      1     82     83       1539.           6060.           1538.    
     21      1     83     82       1562.           6060.           1561.    
     22      1     83     83       1549.           6060.           1548.    
     23      1     84     82       1566.           6060.           1565.    
     24      1     85     82       1577.           6060.           1576.    
     25      1     86     81       1594.           6060.           1593.    
     26      1     86     82       1595.           6060.           1594.    
     27      1     87     81       1606.           6060.           1605.    
     28      1     88     81       1621.           6060.           1620.    
     29      1     89     81       1636.           6060.           1635.    
     30      1     90     81       1651.           6060.           1650.    
     31      1     91     81       1665.           6060.           1664.    

 EVT -- EVAPOTRANSPIRATION PACKAGE, VERSION 7, 5/2/2005
         INPUT READ FROM UNIT   15
 # Evapotranspiration file for MODFLOW-2000, generated by PMWIN
 No named parameters
 OPTION 1 -- EVAPOTRANSPIRATION FROM TOP LAYER
 CELL-BY-CELL FLOWS WILL BE SAVED ON UNIT   50


     0 Evapotranspiration parameters

 RCH -- RECHARGE PACKAGE, VERSION 7, 5/2/2005 INPUT READ FROM UNIT   18
 # RECHARGE file for MODFLOW-2000 by Yu Li
 No named parameters
 OPTION 1 -- RECHARGE TO TOP LAYER


     0 Recharge parameters

 PCG -- CONJUGATE-GRADIENT SOLUTION PACKAGE, VERSION 7, 5/2/2005
 MAXIMUM OF    150 CALLS OF SOLUTION ROUTINE
 MAXIMUM OF     70 INTERNAL ITERATIONS PER CALL TO SOLUTION ROUTINE
 MATRIX PRECONDITIONING TYPE :    2



                                    SOLUTION BY THE CONJUGATE-GRADIENT METHOD
                                   -------------------------------------------
                    MAXIMUM NUMBER OF CALLS TO PCG ROUTINE =      150
                        MAXIMUM ITERATIONS PER CALL TO PCG =       70
                               MATRIX PRECONDITIONING TYPE =        2
                                                      THE MATRIX WILL BE SCALED
        RELAXATION FACTOR (ONLY USED WITH PRECOND. TYPE 1) =    0.99000E+00
 PARAMETER OF POLYNOMIAL PRECOND. = 2 (2) OR IS CALCULATED :        2
                         HEAD CHANGE CRITERION FOR CLOSURE =    0.10000E-02
                     RESIDUAL CHANGE CRITERION FOR CLOSURE =    0.10000E+00
            PCG HEAD AND RESIDUAL CHANGE PRINTOUT INTERVAL =        1
     PRINTING FROM SOLVER IS LIMITED(1) OR SUPPRESSED (>1) =        0
                            STEADY-STATE DAMPING PARAMETER =    0.40000E+00
                               TRANSIENT DAMPING PARAMETER =    0.40000E+00
1
                            STRESS PERIOD NO.    1, LENGTH =   3650.000    
                            -----------------------------------------------

                              NUMBER OF TIME STEPS =    10

                               MULTIPLIER FOR DELT =     1.000

                            INITIAL TIME STEP SIZE =   365.0000    

 Parameter:  DRN_0_1
 DRAIN NO.  LAYER   ROW   COL     DRAIN EL.  CONDUCTANCE         
 ----------------------------------------------------------------
      1      1     43     47       1338.          0.1000E+05
      2      1     44     47       1340.          0.1000E+05
      3      1     45     49       1340.          0.1000E+05
      4      1     46     46       1340.          0.1000E+05
      5      1     46     47       1340.          0.1000E+05
      6      1     62     84       1427.           2004.    
      7      1     63     84       1427.           2004.    
      8      1     64     84       1427.           2004.    
      9      1     65     83       1427.           2004.    
     10      1     65     84       1427.           2004.    
     11      1     66     83       1427.           2004.    
     12      1     67     82       1427.           2004.    
     13      1     67     83       1427.           2004.    
     14      1     68     82       1427.           2004.    
     15      1     69     82       1427.           2004.    
     16      1     70     82       1427.           2004.    
     17      1     78     98       1427.          0.2000E+05
     18      1     80    102       1427.          0.2000E+05
     19      1     80    103       1427.          0.2000E+05
     20      1     81    101       1427.          0.2000E+05
     21      1     81    102       1427.          0.2000E+05
     22      1     82    100       1427.          0.2000E+05
     23      1     82    101       1427.          0.2000E+05
     24      1     83    100       1427.          0.2000E+05
     25      1     86    105       1427.          0.2000E+05
     26      1     86    115       1432.          0.4370E+05
     27      1     87    105       1427.          0.2000E+05
     28      1     88    105       1427.          0.2000E+05
     29      1     88    116       1450.          0.2000E+05
     30      1     89    115       1451.          0.2000E+05
     31      1     90    117       1457.          0.2000E+05
     32      1     91    113       1453.          0.2000E+05
     33      1     91    114       1455.          0.2000E+05
     34      1     92    119       1463.          0.2000E+05
     35      1     93    113       1459.          0.2000E+05
     36      1     93    116       1463.          0.2000E+05
     37      1     93    118       1466.          0.2000E+05
     38      1     95    113       1466.          0.2000E+05
     39      1     95    116       1470.          0.2000E+05
     40      1     96    112       1469.          0.2000E+05
     41      1     97    118       1478.          0.2000E+05
     42      1    100    118       1492.          0.2000E+05

     42 DRAINS

 Parameter:  RIV_0_1
 REACH NO.  LAYER   ROW   COL     STAGE      CONDUCTANCE     BOTTOM EL.         
 -------------------------------------------------------------------------------
      1      1     84    111       1435.          0.4370E+05       1434.    
      2      1     84    112       1441.          0.4370E+05       1440.    
      3      1     85    112       1440.          0.4370E+05       1439.    
      4      1     85    113       1443.          0.4370E+05       1442.    
      5      1    109     92       1640.          0.8658E+05       1639.    
      6      1    109     93       1636.          0.8658E+05       1635.    
      7      1    110     89       1694.          0.8658E+05       1693.    
      8      1    110     90       1654.          0.8658E+05       1653.    
      9      1    110     91       1668.          0.8658E+05       1667.    
     10      1    110     92       1679.          0.8658E+05       1678.    
     11      1    111     89       1676.          0.8658E+05       1675.    

 Parameter:  RIV_20_1
 REACH NO.  LAYER   ROW   COL     STAGE      CONDUCTANCE     BOTTOM EL.         
 -------------------------------------------------------------------------------
     12      1      8     29       1290.          0.4370E+05       1289.    
     13      1      8     30       1292.          0.4370E+05       1291.    
     14      1      9     30       1295.          0.4370E+05       1294.    
     15      1      9     31       1293.          0.4370E+05       1292.    
     16      1     10     31       1294.          0.4370E+05       1293.    
     17      1     11     31       1297.          0.4370E+05       1296.    
     18      1     11     32       1295.          0.4370E+05       1294.    
     19      1     12     32       1294.          0.4370E+05       1293.    
     20      1     12     33       1298.          0.4370E+05       1297.    
     21      1     13     33       1295.          0.4370E+05       1294.    
     22      1     14     32       1298.          0.4370E+05       1297.    
     23      1     14     33       1297.          0.4370E+05       1296.    
     24      1     15     33       1298.          0.4370E+05       1297.    
     25      1     16     33       1298.          0.4370E+05       1297.    
     26      1     16     34       1299.          0.4370E+05       1298.    
     27      1     17     34       1300.          0.4370E+05       1299.    
     28      1     17     35       1302.          0.4370E+05       1301.    
     29      1     18     35       1301.          0.4370E+05       1300.    
     30      1     18     36       1302.          0.4370E+05       1301.    
     31      1     18     37       1304.          0.4370E+05       1303.    
     32      1     18     38       1306.          0.4370E+05       1305.    
     33      1     18     39       1307.          0.4370E+05       1306.    
     34      1     19     39       1306.          0.4370E+05       1305.    
     35      1     19     40       1307.          0.4370E+05       1306.    
     36      1     20     40       1308.          0.4370E+05       1307.    
     37      1     21     40       1307.          0.4370E+05       1306.    
     38      1     22     40       1310.          0.4370E+05       1309.    
     39      1     23     40       1309.          0.4370E+05       1308.    
     40      1     24     40       1310.          0.4370E+05       1309.    
     41      1     24     41       1313.          0.4370E+05       1312.    
     42      1     25     41       1312.          0.4370E+05       1311.    
     43      1     26     41       1313.          0.4370E+05       1312.    
     44      1     26     42       1319.          0.4370E+05       1318.    
     45      1     27     42       1314.          0.4370E+05       1313.    
     46      1     28     42       1315.          0.4370E+05       1314.    
     47      1     29     42       1317.          0.4370E+05       1316.    
     48      1     30     42       1318.          0.4370E+05       1317.    
     49      1     31     41       1322.          0.4370E+05       1321.    
     50      1     31     42       1321.          0.4370E+05       1320.    
     51      1     32     41       1319.          0.4370E+05       1318.    
     52      1     32     42       1322.          0.4370E+05       1321.    
     53      1     33     41       1323.          0.4370E+05       1322.    
     54      1     33     42       1322.          0.4370E+05       1321.    
     55      1     34     42       1322.          0.4370E+05       1321.    
     56      1     34     43       1327.          0.4370E+05       1326.    
     57      1     35     43       1324.          0.4370E+05       1323.    
     58      1     36     43       1326.          0.4370E+05       1325.    
     59      1     36     44       1325.          0.4370E+05       1324.    
     60      1     37     44       1327.          0.4370E+05       1326.    
     61      1     37     45       1329.          0.4370E+05       1328.    
     62      1     38     45       1328.          0.4370E+05       1327.    
     63      1     38     46       1328.          0.4370E+05       1327.    
     64      1     38     47       1330.          0.4370E+05       1329.    
     65      1     38     48       1336.          0.4370E+05       1335.    
     66      1     39     48       1331.          0.4370E+05       1330.    
     67      1     39     49       1331.          0.4370E+05       1330.    
     68      1     40     49       1333.          0.4370E+05       1332.    
     69      1     41     49       1333.          0.4370E+05       1332.    
     70      1     41     50       1333.          0.4370E+05       1332.    
     71      1     42     50       1334.          0.4370E+05       1333.    
     72      1     43     50       1335.          0.4370E+05       1334.    
     73      1     44     50       1337.          0.4370E+05       1336.    
     74      1     44     51       1338.          0.4370E+05       1337.    
     75      1     44     52       1339.          0.4370E+05       1338.    
     76      1     45     52       1338.          0.4370E+05       1337.    
     77      1     45     53       1340.          0.4370E+05       1339.    
     78      1     46     53       1343.          0.4370E+05       1342.    
     79      1     46     54       1340.          0.4370E+05       1339.    
     80      1     46     55       1341.          0.4370E+05       1340.    
     81      1     47     55       1342.          0.4370E+05       1341.    
     82      1     47     56       1342.          0.4370E+05       1341.    
     83      1     48     56       1345.          0.4370E+05       1344.    
     84      1     48     57       1343.          0.4370E+05       1342.    
     85      1     48     58       1344.          0.4370E+05       1343.    
     86      1     49     58       1346.          0.4370E+05       1345.    
     87      1     49     59       1346.          0.4370E+05       1345.    
     88      1     49     60       1346.          0.4370E+05       1345.    
     89      1     50     60       1347.          0.4370E+05       1346.    
     90      1     50     61       1350.          0.4370E+05       1349.    
     91      1     50     62       1350.          0.4370E+05       1349.    
     92      1     50     63       1352.          0.4370E+05       1351.    
     93      1     50     64       1353.          0.4370E+05       1352.    
     94      1     51     64       1353.          0.4370E+05       1352.    
     95      1     51     65       1355.          0.4370E+05       1354.    
     96      1     51     66       1357.          0.4370E+05       1356.    
     97      1     51     67       1358.          0.4370E+05       1357.    
     98      1     51     68       1357.          0.4370E+05       1356.    
     99      1     51     69       1358.          0.4370E+05       1357.    
    100      1     51     70       1358.          0.4370E+05       1357.    
    101      1     51     71       1360.          0.4370E+05       1359.    
    102      1     51     72       1361.          0.4370E+05       1360.    
    103      1     51     73       1361.          0.4370E+05       1360.    
    104      1     51     74       1363.          0.4370E+05       1362.    
    105      1     51     75       1364.          0.4370E+05       1363.    
    106      1     51     76       1368.          0.4370E+05       1367.    
    107      1     51     77       1369.          0.4370E+05       1368.    
    108      1     52     77       1366.          0.4370E+05       1365.    
    109      1     52     78       1368.          0.4370E+05       1367.    
    110      1     53     78       1369.          0.4370E+05       1368.    
    111      1     53     79       1369.          0.4370E+05       1368.    
    112      1     54     79       1378.          0.4370E+05       1377.    
    113      1     54     80       1374.          0.4370E+05       1373.    
    114      1     54     81       1373.          0.4370E+05       1372.    
    115      1     54     82       1379.          0.4370E+05       1378.    
    116      1     55     82       1375.          0.4370E+05       1374.    
    117      1     55     83       1377.          0.4370E+05       1376.    
    118      1     56     83       1383.          0.4370E+05       1382.    
    119      1     56     84       1377.          0.4370E+05       1376.    
    120      1     56     86       1382.          0.4370E+05       1381.    
    121      1     56     87       1381.          0.4370E+05       1380.    
    122      1     56     88       1381.          0.4370E+05       1380.    
    123      1     56     89       1381.          0.4370E+05       1380.    
    124      1     57     84       1385.          0.4370E+05       1384.    
    125      1     57     85       1377.          0.4370E+05       1376.    
    126      1     57     86       1381.          0.4370E+05       1380.    
    127      1     57     89       1387.          0.4370E+05       1386.    
    128      1     57     90       1383.          0.4370E+05       1382.    
    129      1     57     91       1385.          0.4370E+05       1384.    
    130      1     57     92       1391.          0.4370E+05       1390.    
    131      1     58     89       1388.           202.0           1387.    
    132      1     58     92       1388.          0.4370E+05       1387.    
    133      1     58     93       1388.          0.4370E+05       1387.    
    134      1     59     89       1391.           202.0           1390.    
    135      1     59     93       1389.          0.4370E+05       1388.    
    136      1     59     94       1389.          0.4370E+05       1388.    
    137      1     60     89       1395.           202.0           1394.    
    138      1     60     94       1390.          0.4370E+05       1389.    
    139      1     61     89       1399.           202.0           1398.    
    140      1     61     94       1397.          0.4370E+05       1396.    
    141      1     61     95       1391.          0.4370E+05       1390.    
    142      1     62     89       1399.           202.0           1398.    
    143      1     62     95       1394.          0.4370E+05       1393.    
    144      1     62     96       1397.          0.4370E+05       1396.    
    145      1     63     89       1402.           202.0           1401.    
    146      1     63     96       1395.          0.4370E+05       1394.    
    147      1     64     89       1405.           202.0           1404.    
    148      1     64     90       1406.           202.0           1405.    
    149      1     64     96       1396.          0.4370E+05       1395.    
    150      1     64     97       1397.          0.4370E+05       1396.    
    151      1     65     90       1409.           202.0           1408.    
    152      1     65     97       1396.          0.4370E+05       1395.    
    153      1     66     90       1412.           202.0           1411.    
    154      1     66     97       1402.          0.4370E+05       1401.    
    155      1     66     98       1400.          0.4370E+05       1399.    
    156      1     67     90       1416.           202.0           1415.    
    157      1     67     98       1401.          0.4370E+05       1400.    
    158      1     67     99       1401.          0.4370E+05       1400.    
    159      1     68     89       1422.           202.0           1421.    
    160      1     68     90       1420.           202.0           1419.    
    161      1     68     99       1401.          0.4370E+05       1400.    
    162      1     69     89       1425.           202.0           1424.    
    163      1     69     99       1404.          0.4370E+05       1403.    
    164      1     69    100       1404.          0.4370E+05       1403.    
    165      1     70     88       1429.           202.0           1428.    
    166      1     70     89       1427.           202.0           1426.    
    167      1     70    100       1406.          0.4370E+05       1405.    
    168      1     70    101       1405.          0.4370E+05       1404.    
    169      1     71    101       1407.          0.4370E+05       1406.    
    170      1     71    102       1408.          0.4370E+05       1407.    
    171      1     72    102       1409.          0.4370E+05       1408.    
    172      1     73    102       1409.          0.4370E+05       1408.    
    173      1     73    103       1410.          0.4370E+05       1409.    
    174      1     73    104       1409.          0.4370E+05       1408.    
    175      1     74    104       1410.          0.4370E+05       1409.    
    176      1     74    105       1413.          0.4370E+05       1412.    
    177      1     74    106       1425.          0.4370E+05       1424.    
    178      1     75    106       1414.          0.4370E+05       1413.    
    179      1     76    106       1414.          0.4370E+05       1413.    
    180      1     77    106       1417.          0.4370E+05       1416.    
    181      1     78    106       1420.          0.4370E+05       1419.    
    182      1     79    106       1429.          0.4370E+05       1428.    
    183      1     80    106       1435.          0.4370E+05       1434.    
    184      1     80    107       1424.          0.4370E+05       1423.    
    185      1     81    107       1423.          0.4370E+05       1422.    
    186      1     81    108       1425.          0.4370E+05       1424.    
    187      1     82    108       1426.          0.4370E+05       1425.    
    188      1     82    109       1430.          0.4370E+05       1429.    
    189      1     83    109       1427.          0.4370E+05       1426.    
    190      1     83    110       1430.          0.4370E+05       1429.    
    191      1     84    110       1431.          0.4370E+05       1430.    
    192      1     85    109       1441.          0.4370E+05       1440.    
    193      1     85    110       1433.          0.4370E+05       1432.    
    194      1     86    109       1437.          0.4370E+05       1436.    
    195      1     87    109       1439.          0.4370E+05       1438.    
    196      1     88    109       1442.          0.4370E+05       1441.    
    197      1     89    109       1447.          0.4370E+05       1446.    
    198      1     90    109       1448.          0.4370E+05       1447.    
    199      1     91    108       1527.          0.2164E+05       1526.    
    200      1     91    109       1527.          0.2164E+05       1526.    
    201      1     92    107       1527.          0.2164E+05       1526.    
    202      1     92    108       1527.          0.2164E+05       1526.    
    203      1     93    106       1527.          0.2164E+05       1526.    
    204      1     93    107       1527.          0.2164E+05       1526.    
    205      1     94    106       1527.          0.2164E+05       1526.    
    206      1     95    105       1527.          0.2164E+05       1526.    
    207      1     95    106       1527.          0.2164E+05       1526.    
    208      1     96    104       1527.          0.2164E+05       1526.    
    209      1     96    105       1527.          0.2164E+05       1526.    
    210      1     97    104       1527.          0.2164E+05       1526.    
    211      1     98    103       1527.          0.2164E+05       1526.    
    212      1     98    104       1527.          0.2164E+05       1526.    
    213      1     99    102       1538.          0.2164E+05       1537.    
    214      1     99    103       1534.          0.2164E+05       1533.    
    215      1    100    101       1550.          0.2164E+05       1549.    
    216      1    100    102       1544.          0.2164E+05       1543.    
    217      1    101    101       1555.          0.2164E+05       1554.    
    218      1    102    100       1565.          0.2164E+05       1564.    
    219      1    102    101       1561.          0.2164E+05       1560.    
    220      1    103    100       1572.          0.2164E+05       1571.    
    221      1    104     98       1587.          0.2164E+05       1586.    
    222      1    104     99       1580.          0.2164E+05       1579.    
    223      1    104    100       1584.          0.2164E+05       1583.    
    224      1    105     97       1597.          0.2164E+05       1596.    
    225      1    105     98       1590.          0.2164E+05       1589.    
    226      1    106     95       1630.          0.2164E+05       1629.    
    227      1    106     96       1606.          0.2164E+05       1605.    
    228      1    106     97       1606.          0.2164E+05       1605.    
    229      1    107     94       1637.          0.2164E+05       1636.    
    230      1    107     95       1616.          0.2164E+05       1615.    
    231      1    108     94       1625.          0.2164E+05       1624.    
    232      1    109     94       1655.          0.2164E+05       1654.    

 Parameter:  RIV_21_1
 REACH NO.  LAYER   ROW   COL     STAGE      CONDUCTANCE     BOTTOM EL.         
 -------------------------------------------------------------------------------
    233      1     71     88       1452.           6060.           1451.    
    234      1     71     89       1452.           6060.           1451.    
    235      1     72     87       1452.           6060.           1451.    
    236      1     72     88       1452.           6060.           1451.    
    237      1     73     87       1452.           6060.           1451.    
    238      1     74     87       1452.           6060.           1451.    
    239      1     75     87       1452.           6060.           1451.    
    240      1     75     88       1453.           6060.           1452.    
    241      1     76     87       1457.           6060.           1456.    
    242      1     76     88       1458.           6060.           1457.    
    243      1     77     87       1466.           6060.           1465.    
    244      1     78     86       1476.           6060.           1475.    
    245      1     78     87       1475.           6060.           1474.    
    246      1     79     85       1493.           6060.           1492.    
    247      1     79     86       1486.           6060.           1485.    
    248      1     80     84       1510.           6060.           1509.    
    249      1     80     85       1503.           6060.           1502.    
    250      1     81     83       1529.           6060.           1528.    
    251      1     81     84       1521.           6060.           1520.    
    252      1     82     83       1539.           6060.           1538.    
    253      1     83     82       1562.           6060.           1561.    
    254      1     83     83       1549.           6060.           1548.    
    255      1     84     82       1566.           6060.           1565.    
    256      1     85     82       1577.           6060.           1576.    
    257      1     86     81       1594.           6060.           1593.    
    258      1     86     82       1595.           6060.           1594.    
    259      1     87     81       1606.           6060.           1605.    
    260      1     88     81       1621.           6060.           1620.    
    261      1     89     81       1636.           6060.           1635.    
    262      1     90     81       1651.           6060.           1650.    
    263      1     91     81       1665.           6060.           1664.    

    263 RIVER REACHES



                         ET SURFACE
 READING ON UNIT   15 WITH FORMAT: (15G14.0)           

  EVAPOTRANSPIRATION RATE =  3.000000E-03

         EXTINCTION DEPTH =   2.00000    



                           RECHARGE
 READING ON UNIT   18 WITH FORMAT: (1G14.0)            
 
 SOLVING FOR HEAD 


    22 CALLS TO PCG ROUTINE FOR TIME STEP   1 IN STRESS PERIOD    1
   409 TOTAL ITERATIONS

 B OF THE POLYNOMIAL PRECONDITIONING METHOD:   0.2000E+01

 MAXIMUM HEAD CHANGE FOR EACH ITERATION (1 INDICATES THE FIRST INNER ITERATION):

    HEAD CHANGE    HEAD CHANGE    HEAD CHANGE    HEAD CHANGE    HEAD CHANGE 
   LAYER,ROW,COL  LAYER,ROW,COL  LAYER,ROW,COL  LAYER,ROW,COL  LAYER,ROW,COL
 ---------------------------------------------------------------------------
  1   11.99      0  0.8580      0  0.9781      0  0.8555      0  0.5444    
   (  1, 11, 32)  (  1, 85,113)  (  1, 84,113)  (  1, 80,116)  (  1, 81,117)
  0 -0.4515      0 -0.4443      0 -0.3743      0 -0.1603      0 -0.1459    
   (  1, 80,116)  (  1, 80,116)  (  1, 83,121)  (  1, 86, 79)  (  1, 87, 80)
  0 -0.3022E-01  0 -0.2551E-01  0 -0.2997E-01  0 -0.2695E-01  0 -0.2132E-01
   (  1, 99,104)  (  1,104,112)  (  1,108, 95)  (  1,101, 91)  (  1,102, 92)
  0 -0.1417E-01  0 -0.9877E-02  0 -0.1060E-01  0 -0.6845E-02  0 -0.4081E-02
   (  1,104, 91)  (  1,107, 94)  (  1,108, 96)  (  1,108, 95)  (  1,107, 94)
  0  0.5516E-02  0 -0.5153E-02  0  0.2405E-02  0 -0.1040E-02  0 -0.8041E-03
   (  1, 80, 84)  (  1, 95,122)  (  1, 84, 82)  (  1, 98,112)  (  1,102,112)
  0 -0.6145E-03  0 -0.4930E-03  0 -0.3310E-03  0  0.2116E-03  0  0.1121E-03
   (  1,104,112)  (  1,105,112)  (  1,104,109)  (  1,101, 91)  (  1,104, 91)
  0  0.2706E-03  0  0.5266E-04  1  -3.791      0   1.465      0  0.5517    
   (  1, 91,131)  (  1,109, 91)  (  1, 11, 32)  (  1, 10, 32)  (  1, 85,113)
  0  0.4131      0 -0.2487      0 -0.2285      0 -0.3310      0 -0.2140    
   (  1, 80,116)  (  1, 87,112)  (  1, 81,115)  (  1, 80,116)  (  1, 83,121)
  0 -0.1028      0 -0.8309E-01  0 -0.1671E-01  0 -0.1938E-01  0 -0.1939E-01
   (  1, 86, 79)  (  1, 88, 80)  (  1, 99,104)  (  1,103,112)  (  1,108, 95)
  0 -0.1751E-01  0 -0.1368E-01  0 -0.8303E-02  0 -0.6512E-02  0 -0.5921E-02
   (  1,101, 91)  (  1,102, 92)  (  1,104, 91)  (  1,107, 93)  (  1,108, 95)
  0 -0.4064E-02  0 -0.2668E-02  0  0.3631E-02  0 -0.3434E-02  0 -0.2440E-02
   (  1,108, 94)  (  1,106, 93)  (  1, 80, 84)  (  1, 95,122)  (  1, 93,121)
  0  0.1562E-02  0  0.1347E-02  0 -0.3120E-03  0 -0.2856E-03  0 -0.1924E-03
   (  1, 89, 81)  (  1, 88, 82)  (  1,104,112)  (  1,102,109)  (  1,104,108)
  0  0.1161E-03  0  0.8576E-04  0  0.6056E-04  0  0.4647E-04  0  0.2779E-04
   (  1,104, 91)  (  1,106, 91)  (  1,109, 90)  (  1,109, 91)  (  1,109, 90)
  0 -0.1734E-04  1  -2.256      0  0.5906      0  0.3531      0  0.2586    
   (  1, 99,112)  (  1, 11, 32)  (  1, 32, 43)  (  1, 85,113)  (  1, 80,116)
  0 -0.1621      0 -0.1603      0 -0.1972      0 -0.1346      0 -0.6532E-01
   (  1, 87,112)  (  1, 81,115)  (  1, 80,116)  (  1, 83,121)  (  1, 84, 79)
  0 -0.5644E-01  0 -0.9246E-02  0 -0.1108E-01  0 -0.1269E-01  0 -0.1142E-01
   (  1, 87, 80)  (  1, 99,104)  (  1, 95, 96)  (  1, 97, 94)  (  1,101, 91)
  0 -0.9364E-02  0 -0.5045E-02  0 -0.3791E-02  0 -0.3546E-02  0 -0.2715E-02
   (  1,102, 92)  (  1,104, 91)  (  1,107, 93)  (  1,107, 96)  (  1,108, 95)
  0 -0.1895E-02  0  0.2473E-02  0  0.1828E-02  0 -0.1496E-02  0 -0.4777E-03
   (  1,108, 95)  (  1, 80, 84)  (  1, 79, 85)  (  1, 93,121)  (  1, 98,113)
  0 -0.3809E-03  0 -0.2285E-03  0 -0.1873E-03  0  0.1132E-03  0  0.7404E-04
   (  1,101,112)  (  1,104,112)  (  1,101,108)  (  1, 97, 92)  (  1,104, 91)
  0  0.5256E-04  0  0.3781E-04  0  0.2783E-04  1  -1.353      0  0.3625    
   (  1,101, 91)  (  1,109, 90)  (  1,109, 91)  (  1, 11, 32)  (  1, 32, 43)
  0 -0.2113      0 -0.1236      0 -0.7220E-01  0 -0.4810E-01  0 -0.4937E-01
   (  1, 74, 88)  (  1, 75, 89)  (  1, 81, 87)  (  1, 82, 86)  (  1, 82, 83)
  0 -0.4015E-01  0 -0.4413E-01  0 -0.2598E-01  0 -0.7080E-02  0 -0.6573E-02
   (  1, 84, 79)  (  1, 86, 79)  (  1, 88, 80)  (  1, 92, 95)  (  1,107, 96)
  0 -0.7637E-02  0 -0.7740E-02  0 -0.5314E-02  0 -0.2888E-02  0 -0.2376E-02
   (  1, 99, 92)  (  1,101, 91)  (  1,103, 92)  (  1,105, 91)  (  1,107, 91)
  0 -0.2299E-02  0 -0.1599E-02  0 -0.9321E-03  0  0.1352E-02  0  0.1159E-02
   (  1,109, 93)  (  1,109, 94)  (  1,108, 97)  (  1, 80, 84)  (  1, 79, 85)
  0 -0.2686E-03  0 -0.2552E-03  0 -0.2154E-03  0 -0.1405E-03  0 -0.9520E-04
   (  1, 97,112)  (  1,100,112)  (  1,102,112)  (  1,104,112)  (  1,100,107)
  0  0.5799E-04  0  0.4272E-04  0  0.3213E-04  0  0.2738E-04  1 -0.8203    
   (  1,102, 92)  (  1,105, 91)  (  1,106, 90)  (  1,109, 89)  (  1, 11, 32)
  0  0.3243      0 -0.1279      0 -0.7286E-01  0 -0.4244E-01  0 -0.2860E-01
   (  1, 10, 32)  (  1, 74, 88)  (  1, 75, 89)  (  1, 81, 87)  (  1, 82, 86)
  0 -0.3045E-01  0 -0.2446E-01  0 -0.2560E-01  0 -0.1500E-01  0 -0.4229E-02
   (  1, 82, 83)  (  1, 84, 79)  (  1, 86, 79)  (  1, 88, 80)  (  1, 92, 95)
  0 -0.4056E-02  0 -0.4768E-02  0 -0.4652E-02  0 -0.3161E-02  0 -0.1808E-02
   (  1,107, 96)  (  1, 99, 92)  (  1,101, 91)  (  1,103, 92)  (  1,105, 91)
  0 -0.1482E-02  0 -0.1434E-02  0 -0.9221E-03  0 -0.5736E-03  0  0.8669E-03
   (  1,107, 90)  (  1,109, 91)  (  1,109, 94)  (  1,108, 96)  (  1, 80, 84)
  0  0.7222E-03  0 -0.4790E-03  0 -0.1455E-03  0 -0.1264E-03  0 -0.8174E-04
   (  1, 79, 85)  (  1, 93,121)  (  1,100,112)  (  1,102,112)  (  1,103,112)
  0 -0.5583E-04  0  0.3431E-04  0  0.2587E-04  1 -0.4916      0  0.1958    
   (  1,100,107)  (  1,102, 92)  (  1,105, 91)  (  1, 11, 32)  (  1, 10, 32)
  0 -0.7519E-01  0 -0.4341E-01  0 -0.2545E-01  0 -0.1663E-01  0 -0.1857E-01
   (  1, 74, 88)  (  1, 75, 89)  (  1, 81, 87)  (  1, 82, 86)  (  1, 82, 83)
  0 -0.1428E-01  0 -0.1541E-01  0 -0.9127E-02  0 -0.2495E-02  0 -0.2524E-02
   (  1, 84, 79)  (  1, 86, 79)  (  1, 88, 80)  (  1, 92, 95)  (  1,107, 96)
  0 -0.2734E-02  0 -0.2888E-02  0 -0.1841E-02  0 -0.1086E-02  0 -0.8807E-03
   (  1, 99, 92)  (  1,101, 91)  (  1,103, 92)  (  1,105, 91)  (  1,107, 90)
  0 -0.8409E-03  0 -0.5735E-03  0 -0.3240E-03  0  0.5204E-03  0  0.4361E-03
   (  1,109, 91)  (  1,109, 94)  (  1,108, 97)  (  1, 81, 84)  (  1, 79, 85)
  0 -0.2826E-03  0 -0.8731E-04  0 -0.7398E-04  0 -0.5084E-04  0 -0.3210E-04
   (  1, 93,121)  (  1,100,112)  (  1,101,112)  (  1,103,112)  (  1,100,107)
  0  0.2180E-04  1 -0.2813      0  0.1126      0 -0.4469E-01  0 -0.2571E-01
   (  1,103, 92)  (  1, 11, 32)  (  1, 10, 32)  (  1, 74, 88)  (  1, 75, 89)
  0 -0.2059E-01  0 -0.9906E-02  0 -0.1106E-01  0 -0.8438E-02  0 -0.9157E-02
   (  1, 96,123)  (  1, 82, 86)  (  1, 82, 83)  (  1, 84, 79)  (  1, 86, 79)
  0 -0.5503E-02  0 -0.1489E-02  0 -0.1515E-02  0 -0.1637E-02  0 -0.1729E-02
   (  1, 88, 80)  (  1, 92, 95)  (  1,107, 96)  (  1, 99, 92)  (  1,101, 91)
  0 -0.1107E-02  0 -0.6545E-03  0 -0.5247E-03  0 -0.4969E-03  0 -0.3442E-03
   (  1,103, 92)  (  1,105, 91)  (  1,107, 90)  (  1,109, 91)  (  1,109, 94)
  0 -0.1963E-03  0  0.3135E-03  0  0.2604E-03  0 -0.1670E-03  0 -0.5241E-04
   (  1,108, 97)  (  1, 81, 84)  (  1, 79, 85)  (  1, 93,121)  (  1,100,112)
  0 -0.4434E-04  0 -0.3062E-04  0 -0.1932E-04  0  0.1309E-04  1 -0.1688    
   (  1,101,112)  (  1,103,112)  (  1,100,107)  (  1,103, 92)  (  1, 11, 32)
  0  0.6790E-01  0 -0.2727E-01  0 -0.1570E-01  0 -0.1240E-01  0 -0.5847E-02
   (  1, 10, 32)  (  1, 74, 88)  (  1, 75, 89)  (  1, 96,123)  (  1, 82, 86)
  0 -0.6770E-02  0 -0.5027E-02  0 -0.5552E-02  0 -0.3428E-02  0 -0.8744E-03
   (  1, 82, 83)  (  1, 84, 79)  (  1, 86, 79)  (  1, 88, 80)  (  1, 92, 95)
  0 -0.9068E-03  0 -0.9616E-03  0 -0.1050E-02  0 -0.6781E-03  0 -0.4107E-03
   (  1,107, 96)  (  1, 99, 92)  (  1,101, 91)  (  1,103, 92)  (  1,106, 90)
  0 -0.3178E-03  0 -0.2886E-03  0 -0.2099E-03  0 -0.1235E-03  0  0.1914E-03
   (  1,107, 90)  (  1,109, 91)  (  1,109, 94)  (  1,108, 97)  (  1, 81, 84)
  0  0.1637E-03  0 -0.9425E-04  0 -0.3299E-04  0 -0.2754E-04  1 -0.1013    
   (  1, 79, 85)  (  1, 93,121)  (  1,100,112)  (  1,101,112)  (  1, 11, 32)
  0  0.4077E-01  0 -0.1615E-01  0 -0.9340E-02  0 -0.7460E-02  0 -0.3473E-02
   (  1, 10, 32)  (  1, 74, 88)  (  1, 75, 89)  (  1, 96,123)  (  1, 82, 86)
  0 -0.4049E-02  0 -0.2882E-02  0 -0.3296E-02  0 -0.2065E-02  0 -0.5220E-03
   (  1, 82, 83)  (  1, 84, 80)  (  1, 86, 79)  (  1, 88, 80)  (  1, 92, 95)
  0 -0.5450E-03  0 -0.5740E-03  0 -0.6306E-03  0 -0.4084E-03  0 -0.2466E-03
   (  1,107, 96)  (  1, 99, 92)  (  1,101, 91)  (  1,103, 92)  (  1,106, 90)
  0 -0.1898E-03  0 -0.1708E-03  0 -0.1256E-03  0 -0.7458E-04  0  0.1147E-03
   (  1,107, 90)  (  1,109, 91)  (  1,109, 94)  (  1,108, 97)  (  1, 81, 84)
  0  0.9845E-04  0 -0.5553E-04  0 -0.1970E-04  0 -0.1654E-04  1 -0.6081E-01
   (  1, 79, 85)  (  1, 93,121)  (  1,100,112)  (  1,101,112)  (  1, 11, 32)
  0  0.2448E-01  0 -0.9579E-02  0 -0.5553E-02  0 -0.4481E-02  0 -0.2067E-02
   (  1, 10, 32)  (  1, 74, 88)  (  1, 75, 89)  (  1, 96,123)  (  1, 82, 86)
  0 -0.2416E-02  0 -0.1706E-02  0 -0.1956E-02  0 -0.1240E-02  0 -0.3125E-03
   (  1, 82, 83)  (  1, 84, 80)  (  1, 86, 79)  (  1, 88, 80)  (  1, 92, 95)
  0 -0.3268E-03  0 -0.3435E-03  0 -0.3787E-03  0 -0.2458E-03  0 -0.1483E-03
   (  1,107, 96)  (  1, 99, 92)  (  1,101, 91)  (  1,103, 92)  (  1,106, 90)
  0 -0.1131E-03  0 -0.1014E-03  0 -0.7505E-04  0 -0.4497E-04  0  0.6892E-04
   (  1,107, 90)  (  1,109, 91)  (  1,109, 94)  (  1,108, 97)  (  1, 81, 84)
  1 -0.3650E-01  0  0.1469E-01  0 -0.5673E-02  0 -0.3294E-02  0 -0.2699E-02
   (  1, 11, 32)  (  1, 10, 32)  (  1, 74, 88)  (  1, 75, 89)  (  1, 96,123)
  0 -0.1226E-02  0 -0.1437E-02  0 -0.1007E-02  0 -0.1159E-02  0 -0.7432E-03
   (  1, 82, 86)  (  1, 82, 83)  (  1, 84, 80)  (  1, 86, 79)  (  1, 88, 80)
  0 -0.1875E-03  0 -0.1976E-03  0 -0.2058E-03  0 -0.2274E-03  0 -0.1479E-03
   (  1, 92, 95)  (  1,107, 96)  (  1, 99, 92)  (  1,101, 91)  (  1,103, 92)
  0 -0.8930E-04  0 -0.6735E-04  0 -0.6004E-04  0 -0.4477E-04  0 -0.2712E-04
   (  1,106, 90)  (  1,107, 90)  (  1,109, 91)  (  1,109, 94)  (  1,108, 97)
  0  0.4148E-04  1 -0.2191E-01  0  0.8821E-02  0 -0.3359E-02  0 -0.1954E-02
   (  1, 81, 84)  (  1, 11, 32)  (  1, 10, 32)  (  1, 74, 88)  (  1, 75, 89)
  0 -0.1625E-02  0 -0.7269E-03  0 -0.8552E-03  0 -0.5858E-03  0 -0.6865E-03
   (  1, 96,123)  (  1, 82, 86)  (  1, 82, 83)  (  1, 83, 80)  (  1, 86, 79)
  0 -0.4452E-03  0 -0.1124E-03  0 -0.1200E-03  0 -0.1233E-03  0 -0.1366E-03
   (  1, 88, 80)  (  1, 92, 95)  (  1,107, 97)  (  1, 99, 92)  (  1,101, 91)
  0 -0.8904E-04  0 -0.5376E-04  0 -0.4010E-04  1 -0.1315E-01  0  0.5301E-02
   (  1,103, 92)  (  1,106, 90)  (  1,107, 90)  (  1, 11, 32)  (  1, 10, 32)
  0 -0.1975E-02  0 -0.1148E-02  0 -0.9841E-03  0 -0.4265E-03  0 -0.5128E-03
   (  1, 74, 88)  (  1, 75, 89)  (  1, 96,123)  (  1, 82, 86)  (  1, 81, 83)
  0 -0.3404E-03  0 -0.4031E-03  0 -0.2716E-03  0 -0.6891E-04  0 -0.7366E-04
   (  1, 83, 80)  (  1, 86, 79)  (  1, 88, 80)  (  1, 92, 95)  (  1,107, 97)
  0 -0.7444E-04  0 -0.8216E-04  0 -0.5328E-04  0 -0.3239E-04  0 -0.2390E-04
   (  1, 99, 92)  (  1,101, 91)  (  1,103, 92)  (  1,106, 90)  (  1,107, 90)
  1 -0.7891E-02  0  0.3186E-02  0 -0.1161E-02  0 -0.6101E-03  0 -0.5957E-03
   (  1, 11, 32)  (  1, 10, 32)  (  1, 74, 88)  (  1, 95,122)  (  1, 96,123)
  0 -0.2591E-03  0 -0.3016E-03  0 -0.1977E-03  0 -0.2366E-03  0 -0.1654E-03
   (  1, 81, 86)  (  1, 81, 83)  (  1, 83, 80)  (  1, 86, 79)  (  1, 88, 80)
  0 -0.4219E-04  0 -0.4517E-04  0 -0.4488E-04  0 -0.4937E-04  0 -0.3184E-04
   (  1, 92, 95)  (  1,107, 97)  (  1, 99, 92)  (  1,101, 91)  (  1,103, 92)
  0 -0.1949E-04  0 -0.1424E-04  1 -0.4736E-02  0  0.1915E-02  0 -0.6822E-03
   (  1,106, 90)  (  1,107, 90)  (  1, 11, 32)  (  1, 10, 32)  (  1, 74, 88)
  0 -0.3711E-03  0 -0.3604E-03  0 -0.6544E-03  0 -0.1772E-03  0 -0.1146E-03
   (  1, 95,122)  (  1, 96,123)  (  1, 10, 32)  (  1, 81, 83)  (  1, 83, 80)
  0 -0.1387E-03  0 -0.1006E-03  0 -0.2432E-04  0 -0.2767E-04  0 -0.2704E-04
   (  1, 86, 79)  (  1, 88, 80)  (  1,103,105)  (  1,107, 97)  (  1, 99, 92)
  0 -0.2963E-04  0 -0.1901E-04  0 -0.1172E-04  0 -0.8476E-05  1 -0.2842E-02
   (  1,101, 91)  (  1,103, 92)  (  1,106, 90)  (  1,107, 90)  (  1, 11, 32)
  0  0.1151E-02  0 -0.4007E-03  0 -0.2256E-03  0 -0.2179E-03  0 -0.3923E-03
   (  1, 10, 32)  (  1, 74, 88)  (  1, 95,122)  (  1, 96,123)  (  1, 10, 32)
  0 -0.1041E-03  0 -0.6643E-04  0 -0.8125E-04  1 -0.1707E-02  0  0.6874E-03
   (  1, 81, 83)  (  1, 83, 80)  (  1, 86, 79)  (  1, 11, 32)  (  1, 10, 32)
  0 -0.2360E-03  0 -0.1340E-03  0 -0.1304E-03  0 -0.6381E-04  0 -0.6837E-04
   (  1, 74, 88)  (  1, 95,122)  (  1, 96,123)  (  1, 81, 86)  (  1, 81, 84)
  0 -0.1858E-04  0 -0.1972E-04  1 -0.1025E-02  0  0.4102E-03  0 -0.1399E-03
   (  1, 97,106)  (  1, 99,104)  (  1, 11, 32)  (  1, 10, 32)  (  1, 74, 89)
  0 -0.7866E-04  0 -0.7709E-04  0 -0.2095E-04  0 -0.4489E-04  0 -0.1389E-04
   (  1, 95,122)  (  1, 96,123)  (  1,105,112)  (  1, 81, 84)  (  1, 97,106)
  1 -0.6151E-03  0  0.2478E-03  1 -0.3693E-03  0  0.1847E-03  0 -0.8803E-04
   (  1, 11, 32)  (  1, 10, 32)  (  1, 11, 32)  (  1, 10, 32)  (  1, 74, 89)
  0 -0.1553E-03  1 -0.2205E-03  0  0.1109E-03  1 -0.1325E-03
   (  1, 11, 33)  (  1, 11, 32)  (  1, 10, 32)  (  1, 11, 32)

 MAXIMUM RESIDUAL FOR EACH ITERATION (1 INDICATES THE FIRST INNER ITERATION):

    RESIDUAL       RESIDUAL       RESIDUAL       RESIDUAL       RESIDUAL    
   LAYER,ROW,COL  LAYER,ROW,COL  LAYER,ROW,COL  LAYER,ROW,COL  LAYER,ROW,COL
 ---------------------------------------------------------------------------
  1   1435.      0  -637.5      0   671.4      0   689.7      0   774.8    
   (  1,  7, 30)  (  1,  7, 30)  (  1, 10, 32)  (  1, 11, 30)  (  1, 81,117)
  0   355.2      0  -180.7      0   87.25      0   206.5      0  -104.8    
   (  1, 16, 37)  (  1, 16, 37)  (  1, 30, 47)  (  1,  9, 30)  (  1,  9, 30)
  0   67.24      0   98.12      0   79.39      0  -63.13      0  -37.60    
   (  1, 12, 29)  (  1, 34, 43)  (  1,  8, 30)  (  1, 17, 35)  (  1, 10, 32)
  0   25.92      0  -21.19      0  -17.63      0   18.86      0  -10.08    
   (  1, 17, 41)  (  1, 17, 41)  (  1, 13, 30)  (  1, 13, 30)  (  1, 13, 30)
  0   8.036      0   5.663      0  -1.546      0  -2.048      0   1.655    
   (  1,  8, 30)  (  1, 18, 38)  (  1, 11, 33)  (  1, 16, 37)  (  1, 17, 41)
  0  -1.015      0   1.089      0 -0.7570      0 -0.3264      0 -0.1936    
   (  1, 17, 41)  (  1, 25, 42)  (  1,  8, 30)  (  1, 15, 38)  (  1, 35, 47)
  0  0.1338      0 -0.7955E-01  1  -2389.      0   589.3      0   1018.    
   (  1, 35, 47)  (  1,  7, 30)  (  1, 10, 32)  (  1, 10, 32)  (  1, 11, 33)
  0  -585.6      0   524.7      0   515.6      0  -853.8      0   919.1    
   (  1, 11, 33)  (  1, 10, 32)  (  1, 11, 33)  (  1,  8, 30)  (  1,  8, 30)
  0   171.8      0  -742.4      0   534.7      0   64.68      0  -596.9    
   (  1, 11, 33)  (  1,  8, 30)  (  1,  8, 30)  (  1, 11, 33)  (  1,  8, 30)
  0   287.3      0   189.8      0  -200.2      0   84.02      0   103.1    
   (  1,  8, 30)  (  1, 11, 32)  (  1,  8, 30)  (  1,  8, 30)  (  1, 11, 32)
  0  -72.44      0   10.01      0  -6.425      0  -20.48      0   3.425    
   (  1, 12, 33)  (  1,  8, 31)  (  1,  8, 31)  (  1, 12, 33)  (  1,  8, 31)
  0  -2.523      0  -1.125      0   1.219      0   3.188      0 -0.7222    
   (  1,  8, 31)  (  1, 11, 33)  (  1,  8, 31)  (  1, 11, 32)  (  1, 11, 33)
  0  0.3748      0  -1.036      0 -0.2421      0  0.1056      0 -0.4266    
   (  1, 11, 33)  (  1,  8, 30)  (  1, 11, 33)  (  1, 11, 33)  (  1,  8, 30)
  0 -0.6981E-01  1  -1052.      0   419.3      0   620.0      0  -398.8    
   (  1, 11, 33)  (  1, 11, 33)  (  1, 32, 43)  (  1, 11, 33)  (  1, 11, 33)
  0   237.4      0   333.7      0  -74.32      0   108.0      0  -112.3    
   (  1,  9, 32)  (  1, 11, 33)  (  1, 11, 33)  (  1,  9, 32)  (  1,  9, 32)
  0  -348.0      0   261.5      0  -33.98      0  -304.5      0  -45.86    
   (  1, 12, 33)  (  1, 12, 33)  (  1,  9, 32)  (  1, 12, 33)  (  1, 10, 32)
  0   84.71      0  -109.4      0  -18.40      0   66.64      0  -51.62    
   (  1, 11, 32)  (  1, 12, 33)  (  1, 10, 32)  (  1, 11, 32)  (  1, 12, 33)
  0   4.095      0   21.07      0  -12.64      0   1.987      0   6.939    
   (  1,  8, 31)  (  1, 11, 32)  (  1, 12, 33)  (  1,  8, 31)  (  1, 11, 32)
  0 -0.7362      0  0.9898      0  0.5731      0 -0.3223      0  0.2908    
   (  1,  8, 31)  (  1,  8, 31)  (  1, 14, 35)  (  1,  8, 31)  (  1,  8, 31)
  0 -0.1861      0 -0.1068      0  0.7957E-01  1  -606.5      0   231.6    
   (  1, 10, 32)  (  1, 11, 33)  (  1,  8, 31)  (  1, 11, 33)  (  1, 32, 43)
  0   499.9      0  -145.5      0   159.0      0   157.1      0  -265.1    
   (  1, 11, 33)  (  1, 11, 33)  (  1,  9, 32)  (  1, 11, 33)  (  1, 12, 33)
  0   72.64      0  -51.11      0  -227.3      0   142.0      0  -23.01    
   (  1,  9, 32)  (  1,  9, 32)  (  1, 12, 33)  (  1, 12, 33)  (  1,  9, 32)
  0  -176.9      0  -21.20      0   61.24      0  -55.44      0  -10.15    
   (  1, 12, 33)  (  1, 10, 32)  (  1,  8, 30)  (  1, 12, 33)  (  1, 10, 32)
  0   39.46      0  -25.23      0   2.506      0   11.57      0  -5.594    
   (  1, 11, 32)  (  1, 12, 33)  (  1,  8, 31)  (  1, 11, 32)  (  1, 12, 33)
  0   1.186      0   3.436      0 -0.5132      0  0.5532      0  0.3279    
   (  1,  8, 31)  (  1, 11, 32)  (  1,  8, 31)  (  1,  8, 31)  (  1, 14, 35)
  0 -0.2143      0  0.1524      0 -0.1050      0 -0.6645E-01  1  -471.8    
   (  1,  8, 31)  (  1,  8, 31)  (  1, 10, 32)  (  1,  8, 31)  (  1, 10, 32)
  0   126.0      0   295.7      0  -93.48      0   122.6      0   92.14    
   (  1, 10, 32)  (  1, 11, 33)  (  1, 11, 33)  (  1, 10, 32)  (  1, 11, 33)
  0  -167.8      0  -42.03      0   23.88      0  -127.6      0  -16.56    
   (  1, 12, 33)  (  1, 11, 33)  (  1, 11, 33)  (  1, 12, 33)  (  1,  9, 32)
  0   61.54      0  -107.1      0   33.55      0   42.93      0  -35.72    
   (  1, 11, 32)  (  1, 12, 33)  (  1, 12, 33)  (  1, 11, 32)  (  1, 12, 33)
  0  -4.821      0   19.46      0  -14.35      0   1.656      0  -1.224    
   (  1, 17, 38)  (  1,  8, 30)  (  1, 12, 33)  (  1,  8, 31)  (  1,  9, 32)
  0  -3.468      0  0.7100      0   1.774      0 -0.2944      0  0.3181    
   (  1, 12, 33)  (  1,  8, 31)  (  1, 11, 32)  (  1,  8, 31)  (  1,  8, 31)
  0  0.6219      0 -0.1286      0  0.9601E-01  1  -278.9      0   78.14    
   (  1, 11, 32)  (  1,  8, 31)  (  1,  8, 31)  (  1, 10, 32)  (  1, 10, 32)
  0   170.2      0  -56.10      0   71.94      0   53.44      0  -139.0    
   (  1, 11, 33)  (  1, 11, 33)  (  1, 10, 32)  (  1, 11, 33)  (  1,  8, 30)
  0  -26.17      0   14.43      0  -96.50      0   60.40      0   36.96    
   (  1, 11, 33)  (  1, 11, 33)  (  1,  8, 30)  (  1,  8, 30)  (  1, 11, 32)
  0  -76.73      0   27.30      0   25.59      0  -25.24      0   1.847    
   (  1,  8, 30)  (  1,  8, 30)  (  1, 11, 32)  (  1,  8, 30)  (  1,  8, 31)
  0   12.89      0  -8.203      0   1.304      0   4.054      0  -2.016    
   (  1, 11, 32)  (  1, 12, 33)  (  1,  8, 31)  (  1, 12, 33)  (  1, 12, 33)
  0  0.5093      0   1.235      0  0.2371      0  0.1995      0  0.4620    
   (  1,  8, 31)  (  1, 12, 33)  (  1, 16, 35)  (  1,  8, 31)  (  1, 11, 32)
  0 -0.6753E-01  1  -158.9      0   45.04      0   98.10      0  -32.92    
   (  1, 11, 33)  (  1, 10, 32)  (  1, 10, 32)  (  1, 11, 33)  (  1, 11, 33)
  0   41.40      0   31.59      0  -82.69      0  -15.40      0   8.518    
   (  1, 10, 32)  (  1, 11, 33)  (  1,  8, 30)  (  1, 11, 33)  (  1, 11, 33)
  0  -58.20      0   36.19      0   22.15      0  -47.14      0   16.57    
   (  1,  8, 30)  (  1,  8, 30)  (  1,  8, 30)  (  1,  8, 30)  (  1,  8, 30)
  0   15.19      0  -15.90      0   1.097      0   7.596      0  -5.250    
   (  1, 11, 32)  (  1,  8, 30)  (  1,  8, 31)  (  1, 11, 32)  (  1,  8, 30)
  0  0.7979      0 -0.4587      0 -0.3770      0  0.3178      0  0.7702    
   (  1,  8, 31)  (  1,  9, 32)  (  1, 17, 37)  (  1,  8, 31)  (  1, 12, 33)
  0  0.1435      0  0.1235      0  0.2964      0 -0.3753E-01  1  -95.02    
   (  1, 16, 35)  (  1,  8, 31)  (  1, 11, 32)  (  1, 11, 33)  (  1, 10, 32)
  0   27.51      0   58.28      0  -20.39      0   24.52      0   18.91    
   (  1, 10, 32)  (  1, 11, 33)  (  1, 11, 33)  (  1, 10, 32)  (  1, 11, 33)
  0  -49.58      0  -9.183      0   5.315      0  -34.16      0   21.30    
   (  1,  8, 30)  (  1, 11, 33)  (  1, 11, 33)  (  1,  8, 30)  (  1,  8, 30)
  0   13.36      0  -27.79      0   10.64      0   8.927      0  -9.923    
   (  1,  8, 30)  (  1,  8, 30)  (  1,  8, 30)  (  1, 11, 32)  (  1,  8, 30)
  0  0.6411      0   4.419      0  -3.329      0  0.4717      0 -0.2749    
   (  1,  8, 31)  (  1, 11, 32)  (  1,  8, 30)  (  1,  8, 31)  (  1,  9, 32)
  0  0.1891      0  0.1923      0  0.4794      0  0.8843E-01  1  -56.96    
   (  1, 16, 35)  (  1,  8, 31)  (  1, 12, 33)  (  1, 16, 35)  (  1, 10, 32)
  0   16.44      0   34.76      0  -12.21      0   14.62      0   11.34    
   (  1, 10, 32)  (  1, 11, 33)  (  1, 11, 33)  (  1, 10, 32)  (  1, 11, 33)
  0  -29.68      0  -5.465      0   3.178      0  -20.48      0   12.73    
   (  1,  8, 30)  (  1, 11, 33)  (  1, 11, 33)  (  1,  8, 30)  (  1,  8, 30)
  0   8.041      0  -16.61      0   6.386      0   5.342      0  -5.945    
   (  1,  8, 30)  (  1,  8, 30)  (  1,  8, 30)  (  1, 11, 32)  (  1,  8, 30)
  0  0.3800      0   2.617      0  -2.012      0  0.2809      0 -0.1644    
   (  1,  8, 31)  (  1, 11, 32)  (  1,  8, 30)  (  1,  8, 31)  (  1,  9, 32)
  0  0.1129      0  0.1143      0  0.2877      0  0.5271E-01  1  -34.19    
   (  1, 16, 35)  (  1,  8, 31)  (  1, 12, 33)  (  1, 16, 35)  (  1, 10, 32)
  0   9.822      0   20.79      0  -7.267      0   8.738      0   6.788    
   (  1, 10, 32)  (  1, 11, 33)  (  1, 11, 33)  (  1, 10, 32)  (  1, 11, 33)
  0  -17.77      0  -3.261      0   1.896      0  -12.29      0   7.614    
   (  1,  8, 30)  (  1, 11, 33)  (  1, 11, 33)  (  1,  8, 30)  (  1,  8, 30)
  0   4.825      0  -9.961      0   3.824      0   3.204      0  -3.561    
   (  1,  8, 30)  (  1,  8, 30)  (  1,  8, 30)  (  1, 11, 32)  (  1,  8, 30)
  0  0.2254      0   1.557      0  -1.208      0  0.1681      0 -0.9820E-01
   (  1,  8, 31)  (  1, 11, 32)  (  1,  8, 30)  (  1,  8, 31)  (  1,  9, 32)
  1  -20.53      0   5.871      0   12.44      0  -4.329      0   5.223    
   (  1, 10, 32)  (  1, 10, 32)  (  1, 11, 33)  (  1, 11, 33)  (  1, 10, 32)
  0   4.066      0  -10.64      0  -1.947      0   1.131      0  -7.376    
   (  1, 11, 33)  (  1,  8, 30)  (  1, 11, 33)  (  1, 11, 33)  (  1,  8, 30)
  0   4.582      0   2.918      0  -5.973      0   2.288      0   1.924    
   (  1,  8, 30)  (  1,  8, 30)  (  1,  8, 30)  (  1,  8, 30)  (  1, 11, 32)
  0  -2.130      0  0.1339      0  0.9249      0 -0.7221      0  0.1007    
   (  1,  8, 30)  (  1,  8, 31)  (  1, 11, 32)  (  1,  8, 30)  (  1,  8, 31)
  0 -0.5869E-01  1  -12.33      0   3.511      0   7.449      0  -2.579    
   (  1,  9, 32)  (  1, 10, 32)  (  1, 10, 32)  (  1, 11, 33)  (  1, 11, 33)
  0   3.123      0   2.436      0  -6.380      0  -1.162      0  0.6751    
   (  1, 10, 32)  (  1, 11, 33)  (  1,  8, 30)  (  1, 11, 33)  (  1, 11, 33)
  0  -4.429      0   2.758      0   1.764      0  -3.582      0   1.370    
   (  1,  8, 30)  (  1,  8, 30)  (  1,  8, 30)  (  1,  8, 30)  (  1,  8, 30)
  0   1.156      0  -1.274      0  0.7961E-01  1  -7.415      0   2.103    
   (  1, 11, 32)  (  1,  8, 30)  (  1,  8, 31)  (  1, 10, 32)  (  1, 10, 32)
  0   4.459      0  -1.537      0   1.870      0   1.460      0  -3.827    
   (  1, 11, 33)  (  1, 11, 33)  (  1, 10, 32)  (  1, 11, 33)  (  1,  8, 30)
  0 -0.6937      0  0.4095      0  -2.721      0   1.684      0   1.078    
   (  1, 11, 33)  (  1, 11, 33)  (  1,  8, 30)  (  1,  8, 30)  (  1,  8, 30)
  0  -2.175      0  0.8195      0  0.6973      0 -0.7632      0  0.4738E-01
   (  1,  8, 30)  (  1,  8, 30)  (  1, 11, 32)  (  1,  8, 30)  (  1,  8, 31)
  1  -4.460      0   1.260      0   2.670      0 -0.9162      0   1.120    
   (  1, 10, 32)  (  1, 10, 32)  (  1, 11, 33)  (  1, 11, 33)  (  1, 10, 32)
  0  0.8749      0  -2.296      0 -0.4142      0  0.2483      0  -1.671    
   (  1, 11, 33)  (  1,  8, 30)  (  1, 11, 33)  (  1, 11, 33)  (  1,  8, 30)
  0   1.028      0  0.6589      0  -1.319      0  0.4896      0  0.4204    
   (  1,  8, 30)  (  1,  8, 30)  (  1,  8, 30)  (  1,  8, 30)  (  1, 11, 32)
  0 -0.4569      0  0.2820E-01  1  -2.683      0  0.7547      0   1.599    
   (  1,  8, 30)  (  1,  8, 31)  (  1, 10, 32)  (  1, 10, 32)  (  1, 11, 33)
  0 -0.5463      0  0.6709      0  0.5245      0  -1.377      0 -0.2473    
   (  1, 11, 33)  (  1, 10, 32)  (  1, 11, 33)  (  1,  8, 30)  (  1, 11, 33)
  0  0.1506      0  -1.026      0  0.6265      0  0.4026      0 -0.7997    
   (  1, 11, 33)  (  1,  8, 30)  (  1,  8, 30)  (  1,  8, 30)  (  1,  8, 30)
  0  0.2921      0  0.2533      0 -0.2733      0  0.1677E-01  1  -1.614    
   (  1,  8, 30)  (  1, 11, 32)  (  1,  8, 30)  (  1,  8, 31)  (  1, 10, 32)
  0  0.4523      0  0.9572      0 -0.3259      0  0.4020      0  0.3145    
   (  1, 10, 32)  (  1, 11, 33)  (  1, 11, 33)  (  1, 10, 32)  (  1, 11, 33)
  0 -0.8264      0 -0.1476      0  0.9129E-01  1 -0.9633      0  0.2710    
   (  1,  8, 30)  (  1, 11, 33)  (  1, 11, 33)  (  1, 10, 32)  (  1, 10, 32)
[...]
 HEAD/DRAWDOWN PRINTOUT FLAG = 1     TOTAL BUDGET PRINTOUT FLAG = 0
 CELL-BY-CELL FLOW TERM FLAG = 1

 OUTPUT FLAGS FOR ALL LAYERS ARE THE SAME:
   HEAD    DRAWDOWN  HEAD  DRAWDOWN
 PRINTOUT  PRINTOUT  SAVE    SAVE
 ----------------------------------
     0         0       1       0
 UBUDSV SAVING "         STORAGE" ON UNIT 50 AT TIME STEP  9, STRESS PERIOD    1
 UBUDSV SAVING "   CONSTANT HEAD" ON UNIT 50 AT TIME STEP  9, STRESS PERIOD    1
 UBUDSV SAVING "FLOW RIGHT FACE " ON UNIT 50 AT TIME STEP  9, STRESS PERIOD    1
 UBUDSV SAVING "FLOW FRONT FACE " ON UNIT 50 AT TIME STEP  9, STRESS PERIOD    1
 UBUDSV SAVING "          DRAINS" ON UNIT 50 AT TIME STEP  9, STRESS PERIOD    1
 UBUDSV SAVING "   RIVER LEAKAGE" ON UNIT 50 AT TIME STEP  9, STRESS PERIOD    1
 UBUDSV SAVING "              ET" ON UNIT 50 AT TIME STEP  9, STRESS PERIOD    1

 HEAD WILL BE SAVED ON UNIT   51 AT END OF TIME STEP    9, STRESS PERIOD    1
 
 SOLVING FOR HEAD 
    16 CALLS TO PCG ROUTINE FOR TIME STEP  10 IN STRESS PERIOD    1
   244 TOTAL ITERATIONS

 B OF THE POLYNOMIAL PRECONDITIONING METHOD:   0.2000E+01

 MAXIMUM HEAD CHANGE FOR EACH ITERATION (1 INDICATES THE FIRST INNER ITERATION):

    HEAD CHANGE    HEAD CHANGE    HEAD CHANGE    HEAD CHANGE    HEAD CHANGE 
   LAYER,ROW,COL  LAYER,ROW,COL  LAYER,ROW,COL  LAYER,ROW,COL  LAYER,ROW,COL
 ---------------------------------------------------------------------------
  1 -0.5076      0 -0.1839      0 -0.1156      0  0.1567      0  0.9318E-01
   (  1,109,140)  (  1,113,137)  (  1,107,131)  (  1,115,137)  (  1,102,138)
  0 -0.3035E-01  0 -0.3559E-01  0 -0.3469E-01  0 -0.2456E-01  0 -0.6287E-02
   (  1, 57,  5)  (  1, 58,  7)  (  1, 56,  6)  (  1, 57,  5)  (  1,105,104)
  0 -0.4882E-02  0 -0.4750E-02  0 -0.3943E-02  0 -0.3605E-02  0 -0.2427E-02
   (  1,103,105)  (  1,102,108)  (  1, 98,106)  (  1, 96,104)  (  1,101,103)
  0  0.6227E-02  0  0.5334E-02  0  0.3654E-02  0  0.1861E-02  0  0.1273E-02
   (  1, 66,  5)  (  1, 63,  3)  (  1, 65,  2)  (  1, 57,  5)  (  1, 58,  8)
  0 -0.1538E-02  0 -0.9807E-03  0 -0.7486E-03  0 -0.4471E-03  0 -0.4202E-03
   (  1,101,128)  (  1, 89,129)  (  1, 88,128)  (  1, 91,121)  (  1, 90,122)
  0 -0.3327E-03  0 -0.2092E-03  1 -0.3041      0 -0.1088      0 -0.7031E-01
   (  1, 93,121)  (  1, 87,126)  (  1,109,140)  (  1,114,138)  (  1,107,131)
  0  0.9274E-01  0 -0.4289E-01  0 -0.1808E-01  0 -0.2124E-01  0 -0.2074E-01
   (  1,115,137)  (  1,104,127)  (  1, 57,  5)  (  1, 57,  6)  (  1, 56,  6)
  0 -0.1464E-01  0 -0.3789E-02  0 -0.2945E-02  0 -0.2866E-02  0 -0.2369E-02
   (  1, 57,  5)  (  1,105,104)  (  1,103,105)  (  1,102,108)  (  1, 98,106)
  0 -0.2164E-02  0 -0.1447E-02  0  0.3720E-02  0  0.3191E-02  0 -0.5978E-03
   (  1, 96,104)  (  1,101,103)  (  1, 66,  5)  (  1, 63,  3)  (  1,107, 95)
  0  0.1121E-02  0  0.7672E-03  0 -0.9211E-03  0 -0.5938E-03  0 -0.4475E-03
   (  1, 57,  5)  (  1, 58,  8)  (  1,101,128)  (  1, 89,129)  (  1, 88,128)
  0 -0.2683E-03  0 -0.2562E-03  0 -0.2016E-03  0 -0.1272E-03  1 -0.1816    
   (  1, 91,121)  (  1, 90,122)  (  1, 93,121)  (  1, 87,126)  (  1,109,140)
  0 -0.6729E-01  0 -0.4265E-01  0  0.5471E-01  0 -0.2595E-01  0 -0.1076E-01
   (  1,114,138)  (  1,107,131)  (  1,115,137)  (  1,104,127)  (  1, 57,  5)
  0 -0.1264E-01  0 -0.1240E-01  0 -0.8736E-02  0 -0.2285E-02  0 -0.1775E-02
   (  1, 57,  6)  (  1, 56,  6)  (  1, 57,  5)  (  1,105,104)  (  1,103,105)
  0 -0.1729E-02  0 -0.1422E-02  0 -0.1299E-02  0 -0.8634E-03  0  0.2222E-02
   (  1,102,108)  (  1, 98,106)  (  1, 96,104)  (  1,101,103)  (  1, 66,  5)
  0  0.1907E-02  0 -0.3565E-03  0  0.6756E-03  0  0.4622E-03  0 -0.1156E-03
   (  1, 63,  3)  (  1,107, 95)  (  1, 57,  5)  (  1, 58,  8)  (  1,106, 90)
  0 -0.3586E-03  0 -0.2681E-03  0 -0.1607E-03  0 -0.1562E-03  0 -0.1222E-03
   (  1, 89,129)  (  1, 88,128)  (  1, 91,121)  (  1, 90,122)  (  1, 93,121)
  0 -0.7721E-04  1 -0.1081      0 -0.4145E-01  0 -0.2583E-01  0  0.2845E-01
   (  1, 87,126)  (  1,109,140)  (  1,114,138)  (  1,107,131)  (  1,114,136)
  0 -0.1569E-01  0 -0.6404E-02  0 -0.7522E-02  0 -0.7419E-02  0 -0.5214E-02
   (  1,104,127)  (  1, 57,  5)  (  1, 57,  6)  (  1, 56,  6)  (  1, 57,  5)
  0 -0.1377E-02  0 -0.1069E-02  0 -0.1043E-02  0 -0.8537E-03  0 -0.7796E-03
   (  1,105,104)  (  1,103,105)  (  1,102,108)  (  1, 98,106)  (  1, 96,104)
  0 -0.5154E-03  0  0.1327E-02  0  0.1140E-02  0 -0.2127E-03  0  0.4076E-03
   (  1,101,103)  (  1, 66,  5)  (  1, 63,  3)  (  1,107, 95)  (  1, 57,  5)
  0  0.2783E-03  0 -0.6955E-04  0 -0.2161E-03  0 -0.1610E-03  1 -0.6423E-01
   (  1, 58,  8)  (  1,106, 90)  (  1, 89,129)  (  1, 88,128)  (  1,109,140)
  0 -0.2542E-01  0 -0.1561E-01  0  0.1686E-01  0 -0.9479E-02  0 -0.3803E-02
   (  1,114,138)  (  1,107,131)  (  1,114,136)  (  1,104,127)  (  1, 57,  5)
  0 -0.4473E-02  0 -0.4432E-02  0 -0.3113E-02  0 -0.8307E-03  0 -0.6441E-03
   (  1, 57,  6)  (  1, 56,  6)  (  1, 57,  5)  (  1,105,104)  (  1,103,105)
  0 -0.6303E-03  0 -0.5128E-03  0 -0.4680E-03  0 -0.2765E-03  0  0.7914E-03
   (  1,102,108)  (  1, 98,106)  (  1, 96,104)  (  1,108,100)  (  1, 66,  5)
  0  0.6799E-03  0 -0.1270E-03  0  0.2461E-03  0  0.1679E-03  0 -0.4194E-04
   (  1, 63,  3)  (  1,107, 95)  (  1, 57,  5)  (  1, 58,  8)  (  1,106, 90)
  0 -0.1303E-03  0 -0.9676E-04  1 -0.3807E-01  0 -0.1552E-01  0 -0.9421E-02
   (  1, 89,129)  (  1, 88,128)  (  1,109,140)  (  1,114,138)  (  1,107,131)
  0  0.9953E-02  0 -0.5725E-02  0 -0.2257E-02  0 -0.2658E-02  0 -0.2647E-02
   (  1,114,136)  (  1,104,127)  (  1, 57,  5)  (  1, 57,  6)  (  1, 56,  6)
  0 -0.1860E-02  0 -0.4956E-03  0 -0.3881E-03  0 -0.3808E-03  0 -0.3081E-03
   (  1, 57,  5)  (  1,105,103)  (  1,103,105)  (  1,102,108)  (  1, 98,106)
  0 -0.2808E-03  0 -0.1656E-03  0  0.4722E-03  0  0.4056E-03  0 -0.7582E-04
   (  1, 96,104)  (  1,108,100)  (  1, 66,  5)  (  1, 63,  3)  (  1,107, 95)
  0  0.1486E-03  0  0.1013E-03  0 -0.2531E-04  0 -0.7843E-04  0 -0.5822E-04
   (  1, 57,  5)  (  1, 58,  8)  (  1,106, 90)  (  1, 89,129)  (  1, 88,128)
  1 -0.2253E-01  0 -0.9432E-02  0 -0.5679E-02  0  0.5850E-02  0 -0.3455E-02
   (  1,109,140)  (  1,114,138)  (  1,107,131)  (  1,114,136)  (  1,104,127)
  0 -0.1339E-02  0 -0.1580E-02  0 -0.1581E-02  0 -0.1111E-02  0 -0.2992E-03
   (  1, 57,  5)  (  1, 57,  6)  (  1, 56,  6)  (  1, 57,  5)  (  1,105,103)
  0 -0.2338E-03  0 -0.2300E-03  0 -0.1851E-03  0 -0.1684E-03  0 -0.9927E-04
   (  1,103,105)  (  1,102,108)  (  1, 98,106)  (  1, 96,104)  (  1,108,100)
  0  0.2816E-03  0  0.2419E-03  0 -0.4529E-04  0  0.8973E-04  0  0.6105E-04
   (  1, 66,  5)  (  1, 63,  3)  (  1,107, 95)  (  1, 57,  5)  (  1, 58,  8)
  1 -0.1330E-01  0 -0.5700E-02  0 -0.3427E-02  0 -0.2666E-02  0 -0.2086E-02
   (  1,109,140)  (  1,114,138)  (  1,107,131)  (  1,105,129)  (  1,104,127)
  0 -0.7916E-03  0 -0.9366E-03  0 -0.9406E-03  0 -0.6622E-03  0 -0.1803E-03
   (  1, 57,  5)  (  1, 57,  6)  (  1, 56,  6)  (  1, 57,  5)  (  1,105,103)
  0 -0.1422E-03  0 -0.1393E-03  0 -0.1113E-03  0 -0.1006E-03  0 -0.5959E-04
   (  1,103,105)  (  1,102,108)  (  1, 98,106)  (  1, 96,104)  (  1,108,100)
  0  0.1680E-03  0  0.1442E-03  0  0.7494E-04  0  0.5430E-04  0  0.3705E-04
   (  1, 66,  5)  (  1, 63,  3)  (  1, 60,  7)  (  1, 57,  5)  (  1, 58,  8)
  1 -0.7836E-02  0 -0.3430E-02  0 -0.2066E-02  0 -0.1618E-02  0 -0.1259E-02
   (  1,109,140)  (  1,114,138)  (  1,107,131)  (  1,105,129)  (  1,104,127)
  0 -0.9389E-03  0 -0.5551E-03  0 -0.5593E-03  0 -0.3946E-03  0 -0.1087E-03
   (  1,104,124)  (  1, 57,  6)  (  1, 56,  6)  (  1, 57,  5)  (  1,105,103)
  0 -0.8646E-04  0 -0.8431E-04  0 -0.6690E-04  1 -0.4617E-02  0 -0.2045E-02
   (  1,103,105)  (  1,102,108)  (  1, 98,106)  (  1,109,140)  (  1,114,138)
  0 -0.1223E-02  0 -0.9814E-03  0 -0.7445E-03  0 -0.5641E-03  0 -0.3326E-03
   (  1,107,131)  (  1,105,129)  (  1,104,126)  (  1,104,124)  (  1, 57,  6)
  0 -0.3319E-03  0 -0.9044E-04  0 -0.7013E-04  0 -0.5535E-04  0 -0.5251E-04
   (  1, 56,  6)  (  1,107,100)  (  1,105,103)  (  1,103,105)  (  1,102,108)
  0 -0.4061E-04  1 -0.2706E-02  0 -0.1210E-02  0 -0.7090E-03  0 -0.5937E-03
   (  1, 98,106)  (  1,109,140)  (  1,114,138)  (  1,106,131)  (  1,105,129)
  0 -0.4525E-03  0 -0.3519E-03  0 -0.1995E-03  0 -0.7257E-04  0 -0.5915E-04
   (  1,104,126)  (  1,101,127)  (  1, 56,  6)  (  1,108, 99)  (  1,107,100)
  0 -0.4467E-04  1 -0.8982E-03  0 -0.7168E-03  0 -0.4595E-03  0 -0.3782E-03
   (  1,105,103)  (  1,101,141)  (  1,114,138)  (  1,106,132)  (  1, 58, 29)
  0 -0.2640E-03  0 -0.2353E-03  0 -0.1239E-03  0 -0.5165E-04  0 -0.4074E-04
   (  1,104,126)  (  1,101,127)  (  1, 57,  7)  (  1,108, 99)  (  1,107,100)
  1 -0.9715E-03  0 -0.4252E-03  0 -0.2612E-03  0 -0.2274E-03  1 -0.5900E-03
   (  1,109,140)  (  1,114,138)  (  1,106,132)  (  1, 58, 29)  (  1,109,140)
  0 -0.3397E-03  1 -0.4117E-03  0 -0.2697E-03  1  0.1816E-03
   (  1,114,139)  (  1,109,140)  (  1,102,138)  (  1,114,139)

 MAXIMUM RESIDUAL FOR EACH ITERATION (1 INDICATES THE FIRST INNER ITERATION):

    RESIDUAL       RESIDUAL       RESIDUAL       RESIDUAL       RESIDUAL    
   LAYER,ROW,COL  LAYER,ROW,COL  LAYER,ROW,COL  LAYER,ROW,COL  LAYER,ROW,COL
 ---------------------------------------------------------------------------
  1  -95.25      0   51.86      0  -53.97      0   51.65      0   53.85    
   (  1,109,141)  (  1,109,141)  (  1,109,140)  (  1,115,137)  (  1,114,134)
  0   42.70      0   29.54      0  -15.25      0  -16.61      0  -13.10    
   (  1,115,132)  (  1,114,134)  (  1, 22, 44)  (  1,108,136)  (  1,110,134)
  0  -11.65      0  -15.51      0  -9.290      0   12.22      0   8.260    
   (  1,111,132)  (  1,113,121)  (  1, 99,130)  (  1,113,119)  (  1,111,125)
  0   7.441      0   7.904      0  -4.801      0  -4.960      0   1.777    
   (  1,114,115)  (  1,121,118)  (  1, 93,117)  (  1, 87,112)  (  1, 92,128)
  0   1.472      0   1.089      0  0.9211      0  0.6519      0  0.2217    
   (  1, 89,129)  (  1, 87,127)  (  1, 90,121)  (  1, 89,123)  (  1,104,123)
  0  0.3745      0  0.4658E-01  1  -56.50      0   30.57      0   51.22    
   (  1, 87,126)  (  1, 28, 46)  (  1,109,141)  (  1,109,141)  (  1,113,139)
  0   30.30      0   32.78      0   25.30      0   17.88      0  -9.186    
   (  1,115,137)  (  1,114,134)  (  1,115,132)  (  1,114,134)  (  1, 22, 44)
  0  -10.18      0  -7.653      0  -6.929      0  -9.412      0   2.016    
   (  1,108,136)  (  1,110,134)  (  1,111,132)  (  1,113,121)  (  1,107,156)
  0   7.407      0   4.922      0   4.479      0   4.760      0  -2.872    
   (  1,113,119)  (  1,111,125)  (  1,114,115)  (  1,121,118)  (  1, 93,117)
  0  -3.088      0   1.081      0  0.8756      0  0.6292      0  0.5348    
   (  1, 87,112)  (  1, 92,128)  (  1, 89,129)  (  1, 87,127)  (  1, 90,121)
  0  0.3946      0  0.2187      0  0.2318      0  0.2894E-01  1  -33.41    
   (  1, 89,123)  (  1, 95,117)  (  1, 87,126)  (  1, 29, 46)  (  1,109,141)
  0   17.86      0   31.14      0   17.66      0   19.84      0  -13.76    
   (  1,109,141)  (  1,113,139)  (  1,115,137)  (  1,114,134)  (  1,114,134)
  0   10.73      0  -5.508      0  -6.197      0  -4.465      0  -4.108    
   (  1,114,134)  (  1, 22, 44)  (  1,108,136)  (  1,110,134)  (  1,111,132)
  0  -5.689      0   1.189      0   4.468      0   2.921      0   2.683    
   (  1,113,121)  (  1,107,156)  (  1,113,119)  (  1,111,125)  (  1,114,115)
  0   2.850      0  -1.714      0  -1.911      0  0.6549      0  0.5197    
   (  1,121,118)  (  1, 93,117)  (  1, 87,112)  (  1, 92,128)  (  1, 89,129)
  0  0.3626      0  0.3100      0  0.2382      0 -0.1526      0  0.1430    
   (  1, 87,127)  (  1, 90,121)  (  1, 89,123)  (  1, 88,112)  (  1, 87,126)
  0  0.1764E-01  1  -19.70      0   11.05      0   18.82      0   10.25    
   (  1, 29, 46)  (  1,109,141)  (  1,112,141)  (  1,113,139)  (  1,115,137)
  0   11.95      0  -8.335      0   6.392      0  -3.290      0  -3.750    
   (  1,114,134)  (  1,114,134)  (  1,114,134)  (  1, 22, 44)  (  1,108,136)
  0  -2.650      0  -2.429      0  -3.427      0  0.6964      0   2.684    
   (  1,109,134)  (  1,111,132)  (  1,113,121)  (  1,107,156)  (  1,113,119)
  0   1.728      0   1.600      0   1.699      0  -1.021      0  -1.176    
   (  1,111,125)  (  1,114,115)  (  1,121,118)  (  1, 93,117)  (  1, 87,112)
  0  0.3953      0  0.3078      0 -0.2867      0  0.9084E-01  1  -11.85    
   (  1, 92,128)  (  1, 89,129)  (  1, 86,111)  (  1,127,102)  (  1,112,141)
  0   6.848      0   11.32      0   5.925      0   7.174      0  -5.020    
   (  1,112,141)  (  1,113,139)  (  1,115,137)  (  1,114,134)  (  1,114,134)
  0   3.789      0  -1.953      0  -2.256      0  -1.652      0  -1.431    
   (  1,114,134)  (  1, 22, 44)  (  1,108,136)  (  1,109,134)  (  1,111,132)
  0  -2.062      0  0.4058      0   1.609      0   1.018      0  0.9508    
   (  1,113,121)  (  1,107,156)  (  1,113,119)  (  1,111,125)  (  1,114,115)
  0   1.010      0 -0.6086      0 -0.7204      0  0.2377      0  0.1825    
   (  1,121,118)  (  1, 93,117)  (  1, 87,112)  (  1, 92,128)  (  1, 89,129)
  0 -0.1776      0  0.5436E-01  1  -7.164      0   4.208      0   6.787    
   (  1, 86,111)  (  1,127,102)  (  1,112,141)  (  1,112,141)  (  1,113,139)
  0   3.415      0   4.292      0  -3.006      0   2.238      0  -1.157    
   (  1,115,137)  (  1,114,134)  (  1,114,134)  (  1,114,134)  (  1, 22, 44)
  0  -1.350      0  -1.025      0 -0.8406      0  -1.237      0  0.5600    
   (  1,108,136)  (  1,109,134)  (  1,111,132)  (  1,113,121)  (  1,101,134)
  0  0.9620      0  0.5986      0  0.5631      0  0.5989      0 -0.3620    
   (  1,113,119)  (  1,111,125)  (  1,114,115)  (  1,121,118)  (  1, 93,117)
  0 -0.4394      0  0.1425      0  0.1081      0 -0.1090      0  0.3247E-01
   (  1, 87,112)  (  1, 92,128)  (  1, 89,129)  (  1, 86,111)  (  1,127,102)
  1  -4.318      0   2.569      0   4.057      0  -2.012      0   2.560    
   (  1,112,141)  (  1,112,141)  (  1,113,139)  (  1,113,139)  (  1,114,134)
  0  -1.793      0   1.318      0 -0.6846      0 -0.8044      0 -0.6333    
   (  1,114,134)  (  1,114,134)  (  1, 22, 44)  (  1,108,136)  (  1,109,134)
  0 -0.4933      0 -0.7404      0  0.3320      0  0.5736      0  0.3639    
   (  1,111,132)  (  1,113,121)  (  1,101,134)  (  1,113,119)  (  1,112,125)
  0  0.3326      0  0.3000      0 -0.2151      0 -0.2672      0  0.8521E-01
   (  1,114,115)  (  1,122,118)  (  1, 93,117)  (  1, 87,112)  (  1, 92,128)
  1  -2.595      0   1.560      0   2.416      0  -1.224      0   1.521    
   (  1,112,141)  (  1,112,141)  (  1,113,139)  (  1,113,139)  (  1,114,134)
  0  -1.063      0  0.7740      0 -0.4075      0 -0.4764      0 -0.3923    
   (  1,114,134)  (  1,114,134)  (  1, 22, 44)  (  1,108,136)  (  1,109,134)
  0 -0.2893      0 -0.4428      0 -0.1547      0  0.3403      0  0.2138    
   (  1,111,132)  (  1,113,121)  (  1,113,134)  (  1,113,119)  (  1,112,125)
  0  0.1437      0  0.1777      0 -0.1275      0 -0.1619      0  0.5095E-01
   (  1,109,123)  (  1,122,118)  (  1, 93,117)  (  1, 87,112)  (  1, 92,128)
  1  -1.556      0  0.9443      0   1.437      0 -0.7435      0  0.9014    
   (  1,112,141)  (  1,112,141)  (  1,113,139)  (  1,113,139)  (  1,114,134)
  0 -0.6298      0  0.4545      0 -0.2424      0 -0.2813      0 -0.2420    
   (  1,114,134)  (  1,114,134)  (  1, 22, 44)  (  1,108,136)  (  1,109,134)
  0 -0.1696      0 -0.2643      0 -0.9276E-01  1 -0.9344      0  0.5700    
   (  1,111,132)  (  1,113,121)  (  1,113,134)  (  1,112,141)  (  1,112,141)
  0  0.8505      0 -0.4416      0  0.5305      0 -0.3593      0  0.2896    
   (  1,113,139)  (  1,113,139)  (  1,114,134)  (  1,114,134)  (  1,114,134)
  0  0.3472      0 -0.1825      0 -0.1496      0 -0.1570      0 -0.1639    
   (  1, 98,132)  (  1,108,136)  (  1,109,134)  (  1, 97,128)  (  1,113,121)
  0 -0.5571E-01  1 -0.5561      0  0.3407      0  0.4999      0 -0.2611    
   (  1,113,134)  (  1,112,141)  (  1,112,141)  (  1,113,139)  (  1,113,139)
  0  0.3096      0  0.1709      0 -0.1552      0  0.2150      0 -0.1172    
   (  1,114,134)  (  1,113,139)  (  1,113,139)  (  1, 98,132)  (  1,108,136)
  0 -0.9051E-01  1 -0.3310      0  0.2025      0  0.2806      0 -0.2062    
   (  1,109,134)  (  1,112,141)  (  1,112,141)  (  1,113,139)  (  1,114,134)
  0  0.2016      0  0.1193      0 -0.1174      0  0.1387      0 -0.7310E-01
   (  1,114,134)  (  1,113,139)  (  1,113,139)  (  1, 98,132)  (  1,108,136)
  1 -0.2019      0  0.1246      0  0.1878      0 -0.9429E-01  1 -0.1279    
   (  1,112,141)  (  1,112,141)  (  1,113,139)  (  1,113,139)  (  1,112,141)
  0  0.8450E-01  1 -0.1276      0 -0.9198E-01  1 -0.9293E-01
   (  1,112,141)  (  1,112,141)  (  1,110,138)  (  1,112,141)



 HEAD/DRAWDOWN PRINTOUT FLAG = 1     TOTAL BUDGET PRINTOUT FLAG = 0
 CELL-BY-CELL FLOW TERM FLAG = 1

 OUTPUT FLAGS FOR ALL LAYERS ARE THE SAME:
   HEAD    DRAWDOWN  HEAD  DRAWDOWN
 PRINTOUT  PRINTOUT  SAVE    SAVE
 ----------------------------------
     0         0       1       0
 UBUDSV SAVING "         STORAGE" ON UNIT 50 AT TIME STEP 10, STRESS PERIOD    1
 UBUDSV SAVING "   CONSTANT HEAD" ON UNIT 50 AT TIME STEP 10, STRESS PERIOD    1
 UBUDSV SAVING "FLOW RIGHT FACE " ON UNIT 50 AT TIME STEP 10, STRESS PERIOD    1
 UBUDSV SAVING "FLOW FRONT FACE " ON UNIT 50 AT TIME STEP 10, STRESS PERIOD    1
 UBUDSV SAVING "          DRAINS" ON UNIT 50 AT TIME STEP 10, STRESS PERIOD    1
 UBUDSV SAVING "   RIVER LEAKAGE" ON UNIT 50 AT TIME STEP 10, STRESS PERIOD    1
 UBUDSV SAVING "              ET" ON UNIT 50 AT TIME STEP 10, STRESS PERIOD    1

 HEAD WILL BE SAVED ON UNIT   51 AT END OF TIME STEP   10, STRESS PERIOD    1
1
  VOLUMETRIC BUDGET FOR ENTIRE MODEL AT END OF TIME STEP   10, STRESS PERIOD   1
  ------------------------------------------------------------------------------

     CUMULATIVE VOLUMES      L**3       RATES FOR THIS TIME STEP      L**3/T
     ------------------                 ------------------------

           IN:                                      IN:
           ---                                      ---
             STORAGE =  1181176064.0000               STORAGE =      180751.7188
       CONSTANT HEAD =           0.0000         CONSTANT HEAD =           0.0000
              DRAINS =           0.0000                DRAINS =           0.0000
       RIVER LEAKAGE =  8267453952.0000         RIVER LEAKAGE =     2258760.0000
                  ET =           0.0000                    ET =           0.0000
            RECHARGE =  5664970752.0000              RECHARGE =     1552046.6250

            TOTAL IN = 15113601024.0000              TOTAL IN =     3991558.2500

          OUT:                                     OUT:
          ----                                     ----
             STORAGE =   122334712.0000               STORAGE =        1714.7100
       CONSTANT HEAD =           0.0000         CONSTANT HEAD =           0.0000
              DRAINS =  5388544000.0000                DRAINS =     1426209.3750
       RIVER LEAKAGE =  5631859712.0000         RIVER LEAKAGE =     1512026.8750
                  ET =  3315083008.0000                    ET =      871992.3750
            RECHARGE =   655211776.0000              RECHARGE =      179510.0781

           TOTAL OUT = 15113032704.0000             TOTAL OUT =     3991453.7500

            IN - OUT =      568320.0000              IN - OUT =         104.5000

 PERCENT DISCREPANCY =           0.00     PERCENT DISCREPANCY =           0.00






         TIME SUMMARY AT END OF TIME STEP   10 IN STRESS PERIOD    1
                    SECONDS     MINUTES      HOURS       DAYS        YEARS
                    -----------------------------------------------------------
   TIME STEP LENGTH 3.15360E+07 5.25600E+05  8760.0      365.00     0.99932    
 STRESS PERIOD TIME 3.15360E+08 5.25600E+06  87600.      3650.0      9.9932    
         TOTAL TIME 3.15360E+08 5.25600E+06  87600.      3650.0      9.9932    
1

 Run end date and time (yyyy/mm/dd hh:mm:ss): 2020/01/30 15:06:38
 Elapsed run time:  1.607 Seconds

