                                  MODFLOW-2005     
      U.S. GEOLOGICAL SURVEY MODULAR FINITE-DIFFERENCE GROUND-WATER FLOW MODEL
                            VERSION 1.11.00 8/8/2013

 LIST FILE: output/output_ss.dat
                         UNIT    3

 OPENING model/discret_ss.dat
 FILE TYPE:DIS   UNIT  105   STATUS:OLD    
 FORMAT:FORMATTED              ACCESS:SEQUENTIAL          

 OPENING model/bas6.dat
 FILE TYPE:BAS6   UNIT    1   STATUS:OLD    
 FORMAT:FORMATTED              ACCESS:SEQUENTIAL          

 OPENING model/bcf6_ss.dat
 FILE TYPE:BCF6   UNIT   11   STATUS:OLD    
 FORMAT:FORMATTED              ACCESS:SEQUENTIAL          

 OPENING model/pcg2.dat
 FILE TYPE:PCG   UNIT   23   STATUS:OLD    
 FORMAT:FORMATTED              ACCESS:SEQUENTIAL          

 OPENING model/riv6.dat
 FILE TYPE:RIV   UNIT   14   STATUS:OLD    
 FORMAT:FORMATTED              ACCESS:SEQUENTIAL          

 OPENING model/drn6.dat
 FILE TYPE:DRN   UNIT   13   STATUS:OLD    
 FORMAT:FORMATTED              ACCESS:SEQUENTIAL          

 OPENING model/evt6.dat
 FILE TYPE:EVT   UNIT   15   STATUS:OLD    
 FORMAT:FORMATTED              ACCESS:SEQUENTIAL          

 OPENING model/rch6.dat
 FILE TYPE:RCH   UNIT   18   STATUS:OLD    
 FORMAT:FORMATTED              ACCESS:SEQUENTIAL          

 OPENING model/oc_ss.dat
 FILE TYPE:OC   UNIT   22   STATUS:OLD    
 FORMAT:FORMATTED              ACCESS:SEQUENTIAL          

 OPENING output/budget_ss.dat
 FILE TYPE:DATA(BINARY)   UNIT   50   STATUS:UNKNOWN
 FORMAT:BINARY                 ACCESS:SEQUENTIAL          

 OPENING output/head_ss.dat
 FILE TYPE:DATA(BINARY)   UNIT   51   STATUS:UNKNOWN
 FORMAT:BINARY                 ACCESS:SEQUENTIAL          

 BAS -- BASIC PACKAGE, VERSION 7, 5/2/2005 INPUT READ FROM UNIT    1
 
 MODFLOW was compiled using mixed precision
 Precision of REAL variables:           6
 Precision of DOUBLE PRECISION variables:          15

 DISCRETIZATION INPUT DATA READ FROM UNIT  105
 # Discretization file for MODFLOW-2000, generated by PMWIN
    1 LAYERS       129 ROWS       156 COLUMNS
    1 STRESS PERIOD(S) IN SIMULATION
 MODEL TIME UNIT IS DAYS
 MODEL LENGTH UNIT IS UNDEFINED
  Confining bed flag for each layer:
   0



                               DELR
 READING ON UNIT  105 WITH FORMAT: (15G14.0)           



                               DELC
 READING ON UNIT  105 WITH FORMAT: (15G14.0)           



           TOP ELEVATION OF LAYER 1
 READING ON UNIT  105 WITH FORMAT: (15G14.0)           



             MODEL LAYER BOTTOM EL. FOR LAYER   1
 READING ON UNIT  105 WITH FORMAT: (15G14.0)           


 STRESS PERIOD     LENGTH       TIME STEPS     MULTIPLIER FOR DELT    SS FLAG
 ----------------------------------------------------------------------------
        1         1460.000          1                    1.000         SS

 STEADY-STATE SIMULATION



 
 # Basic package file for MODFLOW-2000, generated by PMWIN                       
 THE FREE FORMAT OPTION HAS BEEN SELECTED



                     BOUNDARY ARRAY FOR LAYER   1
 READING ON UNIT    1 WITH FORMAT: (15I3)              

 AQUIFER HEAD WILL BE SET TO  -999.99     AT ALL NO-FLOW NODES (IBOUND=0).



                       INITIAL HEAD FOR LAYER   1
 READING ON UNIT    1 WITH FORMAT: (15G14.0)           

 OUTPUT CONTROL IS SPECIFIED EVERY TIME STEP
 HEAD PRINT FORMAT CODE IS   0    DRAWDOWN PRINT FORMAT CODE IS   0
 HEADS WILL BE SAVED ON UNIT   51    DRAWDOWNS WILL BE SAVED ON UNIT   52

 BCF -- BLOCK-CENTERED FLOW PACKAGE, VERSION 7, 5/2/2005
         INPUT READ FROM UNIT 11
 STEADY-STATE SIMULATION
 CELL-BY-CELL FLOWS WILL BE SAVED ON UNIT 50
 HEAD AT CELLS THAT CONVERT TO DRY=  0.10000E+31
 WETTING CAPABILITY IS ACTIVE
 WETTING FACTOR=   1.00000     WETTING ITERATION INTERVAL=   2
 FLAG THAT SPECIFIES THE EQUATION TO USE FOR HEAD AT WETTED CELLS=   1
      LAYER  LAYER-TYPE CODE     INTERBLOCK T
      --------------------------------------------
         1            1          0 -- HARMONIC    



           COLUMN TO ROW ANISOTROPY
 READING ON UNIT   11 WITH FORMAT: (1G14.0)            



              HYD. COND. ALONG ROWS FOR LAYER   1
 READING ON UNIT   11 WITH FORMAT: (15G14.0)           

         WETDRY PARAMETER =   5.00000     FOR LAYER   1

 DRN -- DRAIN PACKAGE, VERSION 7, 5/2/2005 INPUT READ FROM UNIT   13
 # Drain file for MODFLOW-2000, generated by PMWIN
 #
          1 Named Parameters             42 List entries
 MAXIMUM OF     42 ACTIVE DRAINS AT ONE TIME
 CELL-BY-CELL FLOWS WILL BE SAVED ON UNIT   50


     1 Drain parameters

 PARAMETER NAME:DRN_0_1      TYPE:DRN 
 Parameter value from package file is:   1.00000    
   NUMBER OF ENTRIES:     42

 DRAIN NO.  LAYER   ROW   COL     DRAIN EL.  STRESS FACTOR         
 ------------------------------------------------------------------
      1      1     43     47       1338.          0.1000E+05
      2      1     44     47       1340.          0.1000E+05
      3      1     45     49       1340.          0.1000E+05
      4      1     46     46       1340.          0.1000E+05
      5      1     46     47       1340.          0.1000E+05
      6      1     62     84       1427.           2004.    
      7      1     63     84       1427.           2004.    
      8      1     64     84       1427.           2004.    
      9      1     65     83       1427.           2004.    
     10      1     65     84       1427.           2004.    
     11      1     66     83       1427.           2004.    
     12      1     67     82       1427.           2004.    
     13      1     67     83       1427.           2004.    
     14      1     68     82       1427.           2004.    
     15      1     69     82       1427.           2004.    
     16      1     70     82       1427.           2004.    
     17      1     78     98       1427.          0.2000E+05
     18      1     80    102       1427.          0.2000E+05
     19      1     80    103       1427.          0.2000E+05
     20      1     81    101       1427.          0.2000E+05
     21      1     81    102       1427.          0.2000E+05
     22      1     82    100       1427.          0.2000E+05
     23      1     82    101       1427.          0.2000E+05
     24      1     83    100       1427.          0.2000E+05
     25      1     86    105       1427.          0.2000E+05
     26      1     86    115       1432.          0.4370E+05
     27      1     87    105       1427.          0.2000E+05
     28      1     88    105       1427.          0.2000E+05
     29      1     88    116       1450.          0.2000E+05
     30      1     89    115       1451.          0.2000E+05
     31      1     90    117       1457.          0.2000E+05
     32      1     91    113       1453.          0.2000E+05
     33      1     91    114       1455.          0.2000E+05
     34      1     92    119       1463.          0.2000E+05
     35      1     93    113       1459.          0.2000E+05
     36      1     93    116       1463.          0.2000E+05
     37      1     93    118       1466.          0.2000E+05
     38      1     95    113       1466.          0.2000E+05
     39      1     95    116       1470.          0.2000E+05
     40      1     96    112       1469.          0.2000E+05
     41      1     97    118       1478.          0.2000E+05
     42      1    100    118       1492.          0.2000E+05

 RIV -- RIVER PACKAGE, VERSION 7, 5/2/2005 INPUT READ FROM UNIT   14
 # River file for MODFLOW-2000, generated by PMWIN
 #
          3 Named Parameters            263 List entries
 MAXIMUM OF   2263 ACTIVE RIVER REACHES AT ONE TIME
 CELL-BY-CELL FLOWS WILL BE SAVED ON UNIT   50


     3 River parameters

 PARAMETER NAME:RIV_0_1      TYPE:RIV 
 Parameter value from package file is:   1.00000    
   NUMBER OF ENTRIES:     11

 REACH NO.  LAYER   ROW   COL     STAGE    STRESS FACTOR     BOTTOM EL.         
 -------------------------------------------------------------------------------
      1      1     84    111       1435.          0.4370E+05       1434.    
      2      1     84    112       1441.          0.4370E+05       1440.    
      3      1     85    112       1440.          0.4370E+05       1439.    
      4      1     85    113       1443.          0.4370E+05       1442.    
      5      1    109     92       1640.          0.8658E+05       1639.    
      6      1    109     93       1636.          0.8658E+05       1635.    
      7      1    110     89       1694.          0.8658E+05       1693.    
      8      1    110     90       1654.          0.8658E+05       1653.    
      9      1    110     91       1668.          0.8658E+05       1667.    
     10      1    110     92       1679.          0.8658E+05       1678.    
     11      1    111     89       1676.          0.8658E+05       1675.    

 PARAMETER NAME:RIV_20_1     TYPE:RIV 
 Parameter value from package file is:   1.00000    
   NUMBER OF ENTRIES:    221

 REACH NO.  LAYER   ROW   COL     STAGE    STRESS FACTOR     BOTTOM EL.         
 -------------------------------------------------------------------------------
      1      1      8     29       1290.          0.4370E+05       1289.    
      2      1      8     30       1292.          0.4370E+05       1291.    
      3      1      9     30       1295.          0.4370E+05       1294.    
      4      1      9     31       1293.          0.4370E+05       1292.    
      5      1     10     31       1294.          0.4370E+05       1293.    
      6      1     11     31       1297.          0.4370E+05       1296.    
      7      1     11     32       1295.          0.4370E+05       1294.    
      8      1     12     32       1294.          0.4370E+05       1293.    
      9      1     12     33       1298.          0.4370E+05       1297.    
     10      1     13     33       1295.          0.4370E+05       1294.    
     11      1     14     32       1298.          0.4370E+05       1297.    
     12      1     14     33       1297.          0.4370E+05       1296.    
     13      1     15     33       1298.          0.4370E+05       1297.    
     14      1     16     33       1298.          0.4370E+05       1297.    
     15      1     16     34       1299.          0.4370E+05       1298.    
     16      1     17     34       1300.          0.4370E+05       1299.    
     17      1     17     35       1302.          0.4370E+05       1301.    
     18      1     18     35       1301.          0.4370E+05       1300.    
     19      1     18     36       1302.          0.4370E+05       1301.    
     20      1     18     37       1304.          0.4370E+05       1303.    
     21      1     18     38       1306.          0.4370E+05       1305.    
     22      1     18     39       1307.          0.4370E+05       1306.    
     23      1     19     39       1306.          0.4370E+05       1305.    
     24      1     19     40       1307.          0.4370E+05       1306.    
     25      1     20     40       1308.          0.4370E+05       1307.    
     26      1     21     40       1307.          0.4370E+05       1306.    
     27      1     22     40       1310.          0.4370E+05       1309.    
     28      1     23     40       1309.          0.4370E+05       1308.    
     29      1     24     40       1310.          0.4370E+05       1309.    
     30      1     24     41       1313.          0.4370E+05       1312.    
     31      1     25     41       1312.          0.4370E+05       1311.    
     32      1     26     41       1313.          0.4370E+05       1312.    
     33      1     26     42       1319.          0.4370E+05       1318.    
     34      1     27     42       1314.          0.4370E+05       1313.    
     35      1     28     42       1315.          0.4370E+05       1314.    
     36      1     29     42       1317.          0.4370E+05       1316.    
     37      1     30     42       1318.          0.4370E+05       1317.    
     38      1     31     41       1322.          0.4370E+05       1321.    
     39      1     31     42       1321.          0.4370E+05       1320.    
     40      1     32     41       1319.          0.4370E+05       1318.    
     41      1     32     42       1322.          0.4370E+05       1321.    
     42      1     33     41       1323.          0.4370E+05       1322.    
     43      1     33     42       1322.          0.4370E+05       1321.    
     44      1     34     42       1322.          0.4370E+05       1321.    
     45      1     34     43       1327.          0.4370E+05       1326.    
     46      1     35     43       1324.          0.4370E+05       1323.    
     47      1     36     43       1326.          0.4370E+05       1325.    
     48      1     36     44       1325.          0.4370E+05       1324.    
     49      1     37     44       1327.          0.4370E+05       1326.    
     50      1     37     45       1329.          0.4370E+05       1328.    
     51      1     38     45       1328.          0.4370E+05       1327.    
     52      1     38     46       1328.          0.4370E+05       1327.    
     53      1     38     47       1330.          0.4370E+05       1329.    
     54      1     38     48       1336.          0.4370E+05       1335.    
     55      1     39     48       1331.          0.4370E+05       1330.    
     56      1     39     49       1331.          0.4370E+05       1330.    
     57      1     40     49       1333.          0.4370E+05       1332.    
     58      1     41     49       1333.          0.4370E+05       1332.    
     59      1     41     50       1333.          0.4370E+05       1332.    
     60      1     42     50       1334.          0.4370E+05       1333.    
     61      1     43     50       1335.          0.4370E+05       1334.    
     62      1     44     50       1337.          0.4370E+05       1336.    
     63      1     44     51       1338.          0.4370E+05       1337.    
     64      1     44     52       1339.          0.4370E+05       1338.    
     65      1     45     52       1338.          0.4370E+05       1337.    
     66      1     45     53       1340.          0.4370E+05       1339.    
     67      1     46     53       1343.          0.4370E+05       1342.    
     68      1     46     54       1340.          0.4370E+05       1339.    
     69      1     46     55       1341.          0.4370E+05       1340.    
     70      1     47     55       1342.          0.4370E+05       1341.    
     71      1     47     56       1342.          0.4370E+05       1341.    
     72      1     48     56       1345.          0.4370E+05       1344.    
     73      1     48     57       1343.          0.4370E+05       1342.    
     74      1     48     58       1344.          0.4370E+05       1343.    
     75      1     49     58       1346.          0.4370E+05       1345.    
     76      1     49     59       1346.          0.4370E+05       1345.    
     77      1     49     60       1346.          0.4370E+05       1345.    
     78      1     50     60       1347.          0.4370E+05       1346.    
     79      1     50     61       1350.          0.4370E+05       1349.    
     80      1     50     62       1350.          0.4370E+05       1349.    
     81      1     50     63       1352.          0.4370E+05       1351.    
     82      1     50     64       1353.          0.4370E+05       1352.    
     83      1     51     64       1353.          0.4370E+05       1352.    
     84      1     51     65       1355.          0.4370E+05       1354.    
     85      1     51     66       1357.          0.4370E+05       1356.    
     86      1     51     67       1358.          0.4370E+05       1357.    
     87      1     51     68       1357.          0.4370E+05       1356.    
     88      1     51     69       1358.          0.4370E+05       1357.    
     89      1     51     70       1358.          0.4370E+05       1357.    
     90      1     51     71       1360.          0.4370E+05       1359.    
     91      1     51     72       1361.          0.4370E+05       1360.    
     92      1     51     73       1361.          0.4370E+05       1360.    
     93      1     51     74       1363.          0.4370E+05       1362.    
     94      1     51     75       1364.          0.4370E+05       1363.    
     95      1     51     76       1368.          0.4370E+05       1367.    
     96      1     51     77       1369.          0.4370E+05       1368.    
     97      1     52     77       1366.          0.4370E+05       1365.    
     98      1     52     78       1368.          0.4370E+05       1367.    
     99      1     53     78       1369.          0.4370E+05       1368.    
    100      1     53     79       1369.          0.4370E+05       1368.    
    101      1     54     79       1378.          0.4370E+05       1377.    
    102      1     54     80       1374.          0.4370E+05       1373.    
    103      1     54     81       1373.          0.4370E+05       1372.    
    104      1     54     82       1379.          0.4370E+05       1378.    
    105      1     55     82       1375.          0.4370E+05       1374.    
    106      1     55     83       1377.          0.4370E+05       1376.    
    107      1     56     83       1383.          0.4370E+05       1382.    
    108      1     56     84       1377.          0.4370E+05       1376.    
    109      1     56     86       1382.          0.4370E+05       1381.    
    110      1     56     87       1381.          0.4370E+05       1380.    
    111      1     56     88       1381.          0.4370E+05       1380.    
    112      1     56     89       1381.          0.4370E+05       1380.    
    113      1     57     84       1385.          0.4370E+05       1384.    
    114      1     57     85       1377.          0.4370E+05       1376.    
    115      1     57     86       1381.          0.4370E+05       1380.    
    116      1     57     89       1387.          0.4370E+05       1386.    
    117      1     57     90       1383.          0.4370E+05       1382.    
    118      1     57     91       1385.          0.4370E+05       1384.    
    119      1     57     92       1391.          0.4370E+05       1390.    
    120      1     58     89       1388.           202.0           1387.    
    121      1     58     92       1388.          0.4370E+05       1387.    
    122      1     58     93       1388.          0.4370E+05       1387.    
    123      1     59     89       1391.           202.0           1390.    
    124      1     59     93       1389.          0.4370E+05       1388.    
    125      1     59     94       1389.          0.4370E+05       1388.    
    126      1     60     89       1395.           202.0           1394.    
    127      1     60     94       1390.          0.4370E+05       1389.    
    128      1     61     89       1399.           202.0           1398.    
    129      1     61     94       1397.          0.4370E+05       1396.    
    130      1     61     95       1391.          0.4370E+05       1390.    
    131      1     62     89       1399.           202.0           1398.    
    132      1     62     95       1394.          0.4370E+05       1393.    
    133      1     62     96       1397.          0.4370E+05       1396.    
    134      1     63     89       1402.           202.0           1401.    
    135      1     63     96       1395.          0.4370E+05       1394.    
    136      1     64     89       1405.           202.0           1404.    
    137      1     64     90       1406.           202.0           1405.    
    138      1     64     96       1396.          0.4370E+05       1395.    
    139      1     64     97       1397.          0.4370E+05       1396.    
    140      1     65     90       1409.           202.0           1408.    
    141      1     65     97       1396.          0.4370E+05       1395.    
    142      1     66     90       1412.           202.0           1411.    
    143      1     66     97       1402.          0.4370E+05       1401.    
    144      1     66     98       1400.          0.4370E+05       1399.    
    145      1     67     90       1416.           202.0           1415.    
    146      1     67     98       1401.          0.4370E+05       1400.    
    147      1     67     99       1401.          0.4370E+05       1400.    
    148      1     68     89       1422.           202.0           1421.    
    149      1     68     90       1420.           202.0           1419.    
    150      1     68     99       1401.          0.4370E+05       1400.    
    151      1     69     89       1425.           202.0           1424.    
    152      1     69     99       1404.          0.4370E+05       1403.    
    153      1     69    100       1404.          0.4370E+05       1403.    
    154      1     70     88       1429.           202.0           1428.    
    155      1     70     89       1427.           202.0           1426.    
    156      1     70    100       1406.          0.4370E+05       1405.    
    157      1     70    101       1405.          0.4370E+05       1404.    
    158      1     71    101       1407.          0.4370E+05       1406.    
    159      1     71    102       1408.          0.4370E+05       1407.    
    160      1     72    102       1409.          0.4370E+05       1408.    
    161      1     73    102       1409.          0.4370E+05       1408.    
    162      1     73    103       1410.          0.4370E+05       1409.    
    163      1     73    104       1409.          0.4370E+05       1408.    
    164      1     74    104       1410.          0.4370E+05       1409.    
    165      1     74    105       1413.          0.4370E+05       1412.    
    166      1     74    106       1425.          0.4370E+05       1424.    
    167      1     75    106       1414.          0.4370E+05       1413.    
    168      1     76    106       1414.          0.4370E+05       1413.    
    169      1     77    106       1417.          0.4370E+05       1416.    
    170      1     78    106       1420.          0.4370E+05       1419.    
    171      1     79    106       1429.          0.4370E+05       1428.    
    172      1     80    106       1435.          0.4370E+05       1434.    
    173      1     80    107       1424.          0.4370E+05       1423.    
    174      1     81    107       1423.          0.4370E+05       1422.    
    175      1     81    108       1425.          0.4370E+05       1424.    
    176      1     82    108       1426.          0.4370E+05       1425.    
    177      1     82    109       1430.          0.4370E+05       1429.    
    178      1     83    109       1427.          0.4370E+05       1426.    
    179      1     83    110       1430.          0.4370E+05       1429.    
    180      1     84    110       1431.          0.4370E+05       1430.    
    181      1     85    109       1441.          0.4370E+05       1440.    
    182      1     85    110       1433.          0.4370E+05       1432.    
    183      1     86    109       1437.          0.4370E+05       1436.    
    184      1     87    109       1439.          0.4370E+05       1438.    
    185      1     88    109       1442.          0.4370E+05       1441.    
    186      1     89    109       1447.          0.4370E+05       1446.    
    187      1     90    109       1448.          0.4370E+05       1447.    
    188      1     91    108       1527.          0.2164E+05       1526.    
    189      1     91    109       1527.          0.2164E+05       1526.    
    190      1     92    107       1527.          0.2164E+05       1526.    
    191      1     92    108       1527.          0.2164E+05       1526.    
    192      1     93    106       1527.          0.2164E+05       1526.    
    193      1     93    107       1527.          0.2164E+05       1526.    
    194      1     94    106       1527.          0.2164E+05       1526.    
    195      1     95    105       1527.          0.2164E+05       1526.    
    196      1     95    106       1527.          0.2164E+05       1526.    
    197      1     96    104       1527.          0.2164E+05       1526.    
    198      1     96    105       1527.          0.2164E+05       1526.    
    199      1     97    104       1527.          0.2164E+05       1526.    
    200      1     98    103       1527.          0.2164E+05       1526.    
    201      1     98    104       1527.          0.2164E+05       1526.    
    202      1     99    102       1538.          0.2164E+05       1537.    
    203      1     99    103       1534.          0.2164E+05       1533.    
    204      1    100    101       1550.          0.2164E+05       1549.    
    205      1    100    102       1544.          0.2164E+05       1543.    
    206      1    101    101       1555.          0.2164E+05       1554.    
    207      1    102    100       1565.          0.2164E+05       1564.    
    208      1    102    101       1561.          0.2164E+05       1560.    
    209      1    103    100       1572.          0.2164E+05       1571.    
    210      1    104     98       1587.          0.2164E+05       1586.    
    211      1    104     99       1580.          0.2164E+05       1579.    
    212      1    104    100       1584.          0.2164E+05       1583.    
    213      1    105     97       1597.          0.2164E+05       1596.    
    214      1    105     98       1590.          0.2164E+05       1589.    
    215      1    106     95       1630.          0.2164E+05       1629.    
    216      1    106     96       1606.          0.2164E+05       1605.    
    217      1    106     97       1606.          0.2164E+05       1605.    
    218      1    107     94       1637.          0.2164E+05       1636.    
    219      1    107     95       1616.          0.2164E+05       1615.    
    220      1    108     94       1625.          0.2164E+05       1624.    
    221      1    109     94       1655.          0.2164E+05       1654.    

 PARAMETER NAME:RIV_21_1     TYPE:RIV 
 Parameter value from package file is:   1.00000    
   NUMBER OF ENTRIES:     31

 REACH NO.  LAYER   ROW   COL     STAGE    STRESS FACTOR     BOTTOM EL.         
 -------------------------------------------------------------------------------
      1      1     71     88       1452.           6060.           1451.    
      2      1     71     89       1452.           6060.           1451.    
      3      1     72     87       1452.           6060.           1451.    
      4      1     72     88       1452.           6060.           1451.    
      5      1     73     87       1452.           6060.           1451.    
      6      1     74     87       1452.           6060.           1451.    
      7      1     75     87       1452.           6060.           1451.    
      8      1     75     88       1453.           6060.           1452.    
      9      1     76     87       1457.           6060.           1456.    
     10      1     76     88       1458.           6060.           1457.    
     11      1     77     87       1466.           6060.           1465.    
     12      1     78     86       1476.           6060.           1475.    
     13      1     78     87       1475.           6060.           1474.    
     14      1     79     85       1493.           6060.           1492.    
     15      1     79     86       1486.           6060.           1485.    
     16      1     80     84       1510.           6060.           1509.    
     17      1     80     85       1503.           6060.           1502.    
     18      1     81     83       1529.           6060.           1528.    
     19      1     81     84       1521.           6060.           1520.    
     20      1     82     83       1539.           6060.           1538.    
     21      1     83     82       1562.           6060.           1561.    
     22      1     83     83       1549.           6060.           1548.    
     23      1     84     82       1566.           6060.           1565.    
     24      1     85     82       1577.           6060.           1576.    
     25      1     86     81       1594.           6060.           1593.    
     26      1     86     82       1595.           6060.           1594.    
     27      1     87     81       1606.           6060.           1605.    
     28      1     88     81       1621.           6060.           1620.    
     29      1     89     81       1636.           6060.           1635.    
     30      1     90     81       1651.           6060.           1650.    
     31      1     91     81       1665.           6060.           1664.    

 EVT -- EVAPOTRANSPIRATION PACKAGE, VERSION 7, 5/2/2005
         INPUT READ FROM UNIT   15
 # Evapotranspiration file for MODFLOW-2000, generated by PMWIN
 No named parameters
 OPTION 1 -- EVAPOTRANSPIRATION FROM TOP LAYER
 CELL-BY-CELL FLOWS WILL BE SAVED ON UNIT   50


     0 Evapotranspiration parameters

 RCH -- RECHARGE PACKAGE, VERSION 7, 5/2/2005 INPUT READ FROM UNIT   18
 # RECHARGE file for MODFLOW-2000 by Yu Li
 No named parameters
 OPTION 1 -- RECHARGE TO TOP LAYER


     0 Recharge parameters

 PCG -- CONJUGATE-GRADIENT SOLUTION PACKAGE, VERSION 7, 5/2/2005
 MAXIMUM OF    150 CALLS OF SOLUTION ROUTINE
 MAXIMUM OF     70 INTERNAL ITERATIONS PER CALL TO SOLUTION ROUTINE
 MATRIX PRECONDITIONING TYPE :    2



                                    SOLUTION BY THE CONJUGATE-GRADIENT METHOD
                                   -------------------------------------------
                    MAXIMUM NUMBER OF CALLS TO PCG ROUTINE =      150
                        MAXIMUM ITERATIONS PER CALL TO PCG =       70
                               MATRIX PRECONDITIONING TYPE =        2
                                                      THE MATRIX WILL BE SCALED
        RELAXATION FACTOR (ONLY USED WITH PRECOND. TYPE 1) =    0.99000E+00
 PARAMETER OF POLYNOMIAL PRECOND. = 2 (2) OR IS CALCULATED :        2
                         HEAD CHANGE CRITERION FOR CLOSURE =    0.10000E-02
                     RESIDUAL CHANGE CRITERION FOR CLOSURE =    0.10000E+00
            PCG HEAD AND RESIDUAL CHANGE PRINTOUT INTERVAL =        1
     PRINTING FROM SOLVER IS LIMITED(1) OR SUPPRESSED (>1) =        0
                            STEADY-STATE DAMPING PARAMETER =    0.40000E+00
                               TRANSIENT DAMPING PARAMETER =    0.40000E+00
1
                            STRESS PERIOD NO.    1, LENGTH =   1460.000    
                            -----------------------------------------------

                              NUMBER OF TIME STEPS =     1

                               MULTIPLIER FOR DELT =     1.000

                            INITIAL TIME STEP SIZE =   1460.000    

 Parameter:  DRN_0_1
 DRAIN NO.  LAYER   ROW   COL     DRAIN EL.  CONDUCTANCE         
 ----------------------------------------------------------------
      1      1     43     47       1338.          0.1000E+05
      2      1     44     47       1340.          0.1000E+05
      3      1     45     49       1340.          0.1000E+05
      4      1     46     46       1340.          0.1000E+05
      5      1     46     47       1340.          0.1000E+05
      6      1     62     84       1427.           2004.    
      7      1     63     84       1427.           2004.    
      8      1     64     84       1427.           2004.    
      9      1     65     83       1427.           2004.    
     10      1     65     84       1427.           2004.    
     11      1     66     83       1427.           2004.    
     12      1     67     82       1427.           2004.    
     13      1     67     83       1427.           2004.    
     14      1     68     82       1427.           2004.    
     15      1     69     82       1427.           2004.    
     16      1     70     82       1427.           2004.    
     17      1     78     98       1427.          0.2000E+05
     18      1     80    102       1427.          0.2000E+05
     19      1     80    103       1427.          0.2000E+05
     20      1     81    101       1427.          0.2000E+05
     21      1     81    102       1427.          0.2000E+05
     22      1     82    100       1427.          0.2000E+05
     23      1     82    101       1427.          0.2000E+05
     24      1     83    100       1427.          0.2000E+05
     25      1     86    105       1427.          0.2000E+05
     26      1     86    115       1432.          0.4370E+05
     27      1     87    105       1427.          0.2000E+05
     28      1     88    105       1427.          0.2000E+05
     29      1     88    116       1450.          0.2000E+05
     30      1     89    115       1451.          0.2000E+05
     31      1     90    117       1457.          0.2000E+05
     32      1     91    113       1453.          0.2000E+05
     33      1     91    114       1455.          0.2000E+05
     34      1     92    119       1463.          0.2000E+05
     35      1     93    113       1459.          0.2000E+05
     36      1     93    116       1463.          0.2000E+05
     37      1     93    118       1466.          0.2000E+05
     38      1     95    113       1466.          0.2000E+05
     39      1     95    116       1470.          0.2000E+05
     40      1     96    112       1469.          0.2000E+05
     41      1     97    118       1478.          0.2000E+05
     42      1    100    118       1492.          0.2000E+05

     42 DRAINS

 Parameter:  RIV_0_1
 REACH NO.  LAYER   ROW   COL     STAGE      CONDUCTANCE     BOTTOM EL.         
 -------------------------------------------------------------------------------
      1      1     84    111       1435.          0.4370E+05       1434.    
      2      1     84    112       1441.          0.4370E+05       1440.    
      3      1     85    112       1440.          0.4370E+05       1439.    
      4      1     85    113       1443.          0.4370E+05       1442.    
      5      1    109     92       1640.          0.8658E+05       1639.    
      6      1    109     93       1636.          0.8658E+05       1635.    
      7      1    110     89       1694.          0.8658E+05       1693.    
      8      1    110     90       1654.          0.8658E+05       1653.    
      9      1    110     91       1668.          0.8658E+05       1667.    
     10      1    110     92       1679.          0.8658E+05       1678.    
     11      1    111     89       1676.          0.8658E+05       1675.    

 Parameter:  RIV_20_1
 REACH NO.  LAYER   ROW   COL     STAGE      CONDUCTANCE     BOTTOM EL.         
 -------------------------------------------------------------------------------
     12      1      8     29       1290.          0.4370E+05       1289.    
     13      1      8     30       1292.          0.4370E+05       1291.    
     14      1      9     30       1295.          0.4370E+05       1294.    
     15      1      9     31       1293.          0.4370E+05       1292.    
     16      1     10     31       1294.          0.4370E+05       1293.    
     17      1     11     31       1297.          0.4370E+05       1296.    
     18      1     11     32       1295.          0.4370E+05       1294.    
     19      1     12     32       1294.          0.4370E+05       1293.    
     20      1     12     33       1298.          0.4370E+05       1297.    
     21      1     13     33       1295.          0.4370E+05       1294.    
     22      1     14     32       1298.          0.4370E+05       1297.    
     23      1     14     33       1297.          0.4370E+05       1296.    
     24      1     15     33       1298.          0.4370E+05       1297.    
     25      1     16     33       1298.          0.4370E+05       1297.    
     26      1     16     34       1299.          0.4370E+05       1298.    
     27      1     17     34       1300.          0.4370E+05       1299.    
     28      1     17     35       1302.          0.4370E+05       1301.    
     29      1     18     35       1301.          0.4370E+05       1300.    
     30      1     18     36       1302.          0.4370E+05       1301.    
     31      1     18     37       1304.          0.4370E+05       1303.    
     32      1     18     38       1306.          0.4370E+05       1305.    
     33      1     18     39       1307.          0.4370E+05       1306.    
     34      1     19     39       1306.          0.4370E+05       1305.    
     35      1     19     40       1307.          0.4370E+05       1306.    
     36      1     20     40       1308.          0.4370E+05       1307.    
     37      1     21     40       1307.          0.4370E+05       1306.    
     38      1     22     40       1310.          0.4370E+05       1309.    
     39      1     23     40       1309.          0.4370E+05       1308.    
     40      1     24     40       1310.          0.4370E+05       1309.    
     41      1     24     41       1313.          0.4370E+05       1312.    
     42      1     25     41       1312.          0.4370E+05       1311.    
     43      1     26     41       1313.          0.4370E+05       1312.    
     44      1     26     42       1319.          0.4370E+05       1318.    
     45      1     27     42       1314.          0.4370E+05       1313.    
     46      1     28     42       1315.          0.4370E+05       1314.    
     47      1     29     42       1317.          0.4370E+05       1316.    
     48      1     30     42       1318.          0.4370E+05       1317.    
     49      1     31     41       1322.          0.4370E+05       1321.    
     50      1     31     42       1321.          0.4370E+05       1320.    
     51      1     32     41       1319.          0.4370E+05       1318.    
     52      1     32     42       1322.          0.4370E+05       1321.    
     53      1     33     41       1323.          0.4370E+05       1322.    
     54      1     33     42       1322.          0.4370E+05       1321.    
     55      1     34     42       1322.          0.4370E+05       1321.    
     56      1     34     43       1327.          0.4370E+05       1326.    
     57      1     35     43       1324.          0.4370E+05       1323.    
     58      1     36     43       1326.          0.4370E+05       1325.    
     59      1     36     44       1325.          0.4370E+05       1324.    
     60      1     37     44       1327.          0.4370E+05       1326.    
     61      1     37     45       1329.          0.4370E+05       1328.    
     62      1     38     45       1328.          0.4370E+05       1327.    
     63      1     38     46       1328.          0.4370E+05       1327.    
     64      1     38     47       1330.          0.4370E+05       1329.    
     65      1     38     48       1336.          0.4370E+05       1335.    
     66      1     39     48       1331.          0.4370E+05       1330.    
     67      1     39     49       1331.          0.4370E+05       1330.    
     68      1     40     49       1333.          0.4370E+05       1332.    
     69      1     41     49       1333.          0.4370E+05       1332.    
     70      1     41     50       1333.          0.4370E+05       1332.    
     71      1     42     50       1334.          0.4370E+05       1333.    
     72      1     43     50       1335.          0.4370E+05       1334.    
     73      1     44     50       1337.          0.4370E+05       1336.    
     74      1     44     51       1338.          0.4370E+05       1337.    
     75      1     44     52       1339.          0.4370E+05       1338.    
     76      1     45     52       1338.          0.4370E+05       1337.    
     77      1     45     53       1340.          0.4370E+05       1339.    
     78      1     46     53       1343.          0.4370E+05       1342.    
     79      1     46     54       1340.          0.4370E+05       1339.    
     80      1     46     55       1341.          0.4370E+05       1340.    
     81      1     47     55       1342.          0.4370E+05       1341.    
     82      1     47     56       1342.          0.4370E+05       1341.    
     83      1     48     56       1345.          0.4370E+05       1344.    
     84      1     48     57       1343.          0.4370E+05       1342.    
     85      1     48     58       1344.          0.4370E+05       1343.    
     86      1     49     58       1346.          0.4370E+05       1345.    
     87      1     49     59       1346.          0.4370E+05       1345.    
     88      1     49     60       1346.          0.4370E+05       1345.    
     89      1     50     60       1347.          0.4370E+05       1346.    
     90      1     50     61       1350.          0.4370E+05       1349.    
     91      1     50     62       1350.          0.4370E+05       1349.    
     92      1     50     63       1352.          0.4370E+05       1351.    
     93      1     50     64       1353.          0.4370E+05       1352.    
     94      1     51     64       1353.          0.4370E+05       1352.    
     95      1     51     65       1355.          0.4370E+05       1354.    
     96      1     51     66       1357.          0.4370E+05       1356.    
     97      1     51     67       1358.          0.4370E+05       1357.    
     98      1     51     68       1357.          0.4370E+05       1356.    
     99      1     51     69       1358.          0.4370E+05       1357.    
    100      1     51     70       1358.          0.4370E+05       1357.    
    101      1     51     71       1360.          0.4370E+05       1359.    
    102      1     51     72       1361.          0.4370E+05       1360.    
    103      1     51     73       1361.          0.4370E+05       1360.    
    104      1     51     74       1363.          0.4370E+05       1362.    
    105      1     51     75       1364.          0.4370E+05       1363.    
    106      1     51     76       1368.          0.4370E+05       1367.    
    107      1     51     77       1369.          0.4370E+05       1368.    
    108      1     52     77       1366.          0.4370E+05       1365.    
    109      1     52     78       1368.          0.4370E+05       1367.    
    110      1     53     78       1369.          0.4370E+05       1368.    
    111      1     53     79       1369.          0.4370E+05       1368.    
    112      1     54     79       1378.          0.4370E+05       1377.    
    113      1     54     80       1374.          0.4370E+05       1373.    
    114      1     54     81       1373.          0.4370E+05       1372.    
    115      1     54     82       1379.          0.4370E+05       1378.    
    116      1     55     82       1375.          0.4370E+05       1374.    
    117      1     55     83       1377.          0.4370E+05       1376.    
    118      1     56     83       1383.          0.4370E+05       1382.    
    119      1     56     84       1377.          0.4370E+05       1376.    
    120      1     56     86       1382.          0.4370E+05       1381.    
    121      1     56     87       1381.          0.4370E+05       1380.    
    122      1     56     88       1381.          0.4370E+05       1380.    
    123      1     56     89       1381.          0.4370E+05       1380.    
    124      1     57     84       1385.          0.4370E+05       1384.    
    125      1     57     85       1377.          0.4370E+05       1376.    
    126      1     57     86       1381.          0.4370E+05       1380.    
    127      1     57     89       1387.          0.4370E+05       1386.    
    128      1     57     90       1383.          0.4370E+05       1382.    
    129      1     57     91       1385.          0.4370E+05       1384.    
    130      1     57     92       1391.          0.4370E+05       1390.    
    131      1     58     89       1388.           202.0           1387.    
    132      1     58     92       1388.          0.4370E+05       1387.    
    133      1     58     93       1388.          0.4370E+05       1387.    
    134      1     59     89       1391.           202.0           1390.    
    135      1     59     93       1389.          0.4370E+05       1388.    
    136      1     59     94       1389.          0.4370E+05       1388.    
    137      1     60     89       1395.           202.0           1394.    
    138      1     60     94       1390.          0.4370E+05       1389.    
    139      1     61     89       1399.           202.0           1398.    
    140      1     61     94       1397.          0.4370E+05       1396.    
    141      1     61     95       1391.          0.4370E+05       1390.    
    142      1     62     89       1399.           202.0           1398.    
    143      1     62     95       1394.          0.4370E+05       1393.    
    144      1     62     96       1397.          0.4370E+05       1396.    
    145      1     63     89       1402.           202.0           1401.    
    146      1     63     96       1395.          0.4370E+05       1394.    
    147      1     64     89       1405.           202.0           1404.    
    148      1     64     90       1406.           202.0           1405.    
    149      1     64     96       1396.          0.4370E+05       1395.    
    150      1     64     97       1397.          0.4370E+05       1396.    
    151      1     65     90       1409.           202.0           1408.    
    152      1     65     97       1396.          0.4370E+05       1395.    
    153      1     66     90       1412.           202.0           1411.    
    154      1     66     97       1402.          0.4370E+05       1401.    
    155      1     66     98       1400.          0.4370E+05       1399.    
    156      1     67     90       1416.           202.0           1415.    
    157      1     67     98       1401.          0.4370E+05       1400.    
    158      1     67     99       1401.          0.4370E+05       1400.    
    159      1     68     89       1422.           202.0           1421.    
    160      1     68     90       1420.           202.0           1419.    
    161      1     68     99       1401.          0.4370E+05       1400.    
    162      1     69     89       1425.           202.0           1424.    
    163      1     69     99       1404.          0.4370E+05       1403.    
    164      1     69    100       1404.          0.4370E+05       1403.    
    165      1     70     88       1429.           202.0           1428.    
    166      1     70     89       1427.           202.0           1426.    
    167      1     70    100       1406.          0.4370E+05       1405.    
    168      1     70    101       1405.          0.4370E+05       1404.    
    169      1     71    101       1407.          0.4370E+05       1406.    
    170      1     71    102       1408.          0.4370E+05       1407.    
    171      1     72    102       1409.          0.4370E+05       1408.    
    172      1     73    102       1409.          0.4370E+05       1408.    
    173      1     73    103       1410.          0.4370E+05       1409.    
    174      1     73    104       1409.          0.4370E+05       1408.    
    175      1     74    104       1410.          0.4370E+05       1409.    
    176      1     74    105       1413.          0.4370E+05       1412.    
    177      1     74    106       1425.          0.4370E+05       1424.    
    178      1     75    106       1414.          0.4370E+05       1413.    
    179      1     76    106       1414.          0.4370E+05       1413.    
    180      1     77    106       1417.          0.4370E+05       1416.    
    181      1     78    106       1420.          0.4370E+05       1419.    
    182      1     79    106       1429.          0.4370E+05       1428.    
    183      1     80    106       1435.          0.4370E+05       1434.    
    184      1     80    107       1424.          0.4370E+05       1423.    
    185      1     81    107       1423.          0.4370E+05       1422.    
    186      1     81    108       1425.          0.4370E+05       1424.    
    187      1     82    108       1426.          0.4370E+05       1425.    
    188      1     82    109       1430.          0.4370E+05       1429.    
    189      1     83    109       1427.          0.4370E+05       1426.    
    190      1     83    110       1430.          0.4370E+05       1429.    
    191      1     84    110       1431.          0.4370E+05       1430.    
    192      1     85    109       1441.          0.4370E+05       1440.    
    193      1     85    110       1433.          0.4370E+05       1432.    
    194      1     86    109       1437.          0.4370E+05       1436.    
    195      1     87    109       1439.          0.4370E+05       1438.    
    196      1     88    109       1442.          0.4370E+05       1441.    
    197      1     89    109       1447.          0.4370E+05       1446.    
    198      1     90    109       1448.          0.4370E+05       1447.    
    199      1     91    108       1527.          0.2164E+05       1526.    
    200      1     91    109       1527.          0.2164E+05       1526.    
    201      1     92    107       1527.          0.2164E+05       1526.    
    202      1     92    108       1527.          0.2164E+05       1526.    
    203      1     93    106       1527.          0.2164E+05       1526.    
    204      1     93    107       1527.          0.2164E+05       1526.    
    205      1     94    106       1527.          0.2164E+05       1526.    
    206      1     95    105       1527.          0.2164E+05       1526.    
    207      1     95    106       1527.          0.2164E+05       1526.    
    208      1     96    104       1527.          0.2164E+05       1526.    
    209      1     96    105       1527.          0.2164E+05       1526.    
    210      1     97    104       1527.          0.2164E+05       1526.    
    211      1     98    103       1527.          0.2164E+05       1526.    
    212      1     98    104       1527.          0.2164E+05       1526.    
    213      1     99    102       1538.          0.2164E+05       1537.    
    214      1     99    103       1534.          0.2164E+05       1533.    
    215      1    100    101       1550.          0.2164E+05       1549.    
    216      1    100    102       1544.          0.2164E+05       1543.    
    217      1    101    101       1555.          0.2164E+05       1554.    
    218      1    102    100       1565.          0.2164E+05       1564.    
    219      1    102    101       1561.          0.2164E+05       1560.    
    220      1    103    100       1572.          0.2164E+05       1571.    
    221      1    104     98       1587.          0.2164E+05       1586.    
    222      1    104     99       1580.          0.2164E+05       1579.    
    223      1    104    100       1584.          0.2164E+05       1583.    
    224      1    105     97       1597.          0.2164E+05       1596.    
    225      1    105     98       1590.          0.2164E+05       1589.    
    226      1    106     95       1630.          0.2164E+05       1629.    
    227      1    106     96       1606.          0.2164E+05       1605.    
    228      1    106     97       1606.          0.2164E+05       1605.    
    229      1    107     94       1637.          0.2164E+05       1636.    
    230      1    107     95       1616.          0.2164E+05       1615.    
    231      1    108     94       1625.          0.2164E+05       1624.    
    232      1    109     94       1655.          0.2164E+05       1654.    

 Parameter:  RIV_21_1
 REACH NO.  LAYER   ROW   COL     STAGE      CONDUCTANCE     BOTTOM EL.         
 -------------------------------------------------------------------------------
    233      1     71     88       1452.           6060.           1451.    
    234      1     71     89       1452.           6060.           1451.    
    235      1     72     87       1452.           6060.           1451.    
    236      1     72     88       1452.           6060.           1451.    
    237      1     73     87       1452.           6060.           1451.    
    238      1     74     87       1452.           6060.           1451.    
    239      1     75     87       1452.           6060.           1451.    
    240      1     75     88       1453.           6060.           1452.    
    241      1     76     87       1457.           6060.           1456.    
    242      1     76     88       1458.           6060.           1457.    
    243      1     77     87       1466.           6060.           1465.    
    244      1     78     86       1476.           6060.           1475.    
    245      1     78     87       1475.           6060.           1474.    
    246      1     79     85       1493.           6060.           1492.    
    247      1     79     86       1486.           6060.           1485.    
    248      1     80     84       1510.           6060.           1509.    
    249      1     80     85       1503.           6060.           1502.    
    250      1     81     83       1529.           6060.           1528.    
    251      1     81     84       1521.           6060.           1520.    
    252      1     82     83       1539.           6060.           1538.    
    253      1     83     82       1562.           6060.           1561.    
    254      1     83     83       1549.           6060.           1548.    
    255      1     84     82       1566.           6060.           1565.    
    256      1     85     82       1577.           6060.           1576.    
    257      1     86     81       1594.           6060.           1593.    
    258      1     86     82       1595.           6060.           1594.    
    259      1     87     81       1606.           6060.           1605.    
    260      1     88     81       1621.           6060.           1620.    
    261      1     89     81       1636.           6060.           1635.    
    262      1     90     81       1651.           6060.           1650.    
    263      1     91     81       1665.           6060.           1664.    

    263 RIVER REACHES



                         ET SURFACE
 READING ON UNIT   15 WITH FORMAT: (15G14.0)           

  EVAPOTRANSPIRATION RATE =  3.000000E-03

         EXTINCTION DEPTH =   2.00000    



                           RECHARGE
 READING ON UNIT   18 WITH FORMAT: (1G14.0)            
 
 SOLVING FOR HEAD 


    23 CALLS TO PCG ROUTINE FOR TIME STEP   1 IN STRESS PERIOD    1
   932 TOTAL ITERATIONS

 B OF THE POLYNOMIAL PRECONDITIONING METHOD:   0.2000E+01

 MAXIMUM HEAD CHANGE FOR EACH ITERATION (1 INDICATES THE FIRST INNER ITERATION):

    HEAD CHANGE    HEAD CHANGE    HEAD CHANGE    HEAD CHANGE    HEAD CHANGE 
   LAYER,ROW,COL  LAYER,ROW,COL  LAYER,ROW,COL  LAYER,ROW,COL  LAYER,ROW,COL
 ---------------------------------------------------------------------------
  1   19.07      0   4.453      0   4.435      0   1.123      0   1.344    
   (  1, 11, 32)  (  1, 32, 44)  (  1, 33, 46)  (  1, 80,116)  (  1, 80,116)
  0 -0.6102      0 -0.5119      0 -0.7014      0 -0.7448      0 -0.3410    
   (  1, 82, 86)  (  1, 83, 85)  (  1, 83, 83)  (  1, 84, 79)  (  1, 87, 80)
  0 -0.3644      0 -0.4509      0 -0.1154      0 -0.1644      0 -0.2518    
   (  1, 87,125)  (  1,120,120)  (  1,108, 95)  (  1,101, 91)  (  1,102, 92)
  0 -0.2796      0 -0.2038      0 -0.2244      0 -0.1578      0 -0.1294    
   (  1,104, 92)  (  1,108, 94)  (  1,109, 91)  (  1,109, 91)  (  1,108,100)
  0 -0.1636      0 -0.1322      0 -0.2473      0   1.209      0 -0.2409    
   (  1,108,100)  (  1,108, 99)  (  1, 60,  8)  (  1,110,155)  (  1, 56,  6)
  0 -0.2276      0 -0.2584      0  0.9433      0 -0.1792      0 -0.1941    
   (  1, 58,  7)  (  1, 60,  7)  (  1,105,149)  (  1, 59,  7)  (  1, 60,  8)
  0 -0.2265      0 -0.1881      0 -0.1943      0 -0.2362      0 -0.2788    
   (  1, 56,  6)  (  1, 57,  6)  (  1, 59,  8)  (  1, 57,  5)  (  1, 55,  6)
  0 -0.3023      0 -0.3405      0 -0.3004      0 -0.2752      0 -0.3807    
   (  1, 59,  7)  (  1, 59,  8)  (  1, 56,  6)  (  1, 58,  7)  (  1, 59,  7)
  0 -0.2876      0 -0.2199      0 -0.2305      0 -0.2619      0 -0.2485    
   (  1, 57,  5)  (  1, 56,  6)  (  1, 60,  7)  (  1, 59,  8)  (  1, 56,  6)
  0 -0.1677      0 -0.1179      0 -0.1181      0 -0.9025E-01  0 -0.6932E-01
   (  1, 59,  7)  (  1, 58,  7)  (  1, 56,  6)  (  1, 56,  7)  (  1, 59, 10)
  0 -0.4251E-01  0 -0.2200E-01  0 -0.1773E-01  0 -0.1226E-01  0 -0.1669E-01
   (  1, 60,  8)  (  1, 58,  7)  (  1, 57,  5)  (  1, 57,  5)  (  1, 57, 33)
  0 -0.2414E-01  0 -0.1845E-01  0  0.1295E-01  0  0.1047E-01  0  0.1059E-01
   (  1, 58, 33)  (  1,126,108)  (  1, 23, 23)  (  1, 22, 18)  (  1, 21, 19)
  0  0.6798E-02  0  0.3429E-02  0  0.2319E-02  0  0.1714E-02  0  0.2190E-02
   (  1, 23, 18)  (  1, 22, 19)  (  1, 20, 19)  (  1, 17, 20)  (  1, 59, 32)
  0  0.3251E-03  0  0.3298E-03  0  0.1729E-02  0  0.1185E-02  0  0.8294E-03
   (  1,108, 97)  (  1,108, 95)  (  1, 56, 36)  (  1, 26, 33)  (  1, 58, 42)
  1  -7.392      0   5.164      0  -3.127      0  -1.448      0  0.8703    
   (  1, 11, 32)  (  1,  9, 32)  (  1, 31, 47)  (  1, 31, 45)  (  1, 80,116)
  0 -0.3337      0 -0.3912      0 -0.9106      0 -0.7899      0 -0.2602    
   (  1, 82, 86)  (  1, 82, 85)  (  1, 92,132)  (  1, 94,133)  (  1, 88, 80)
  0 -0.2275      0 -0.8130E-01  0 -0.8085E-01  0 -0.1393      0 -0.1809    
   (  1, 88, 80)  (  1,101,102)  (  1, 97, 94)  (  1,101, 91)  (  1,102, 92)
  0 -0.1690      0 -0.1707      0 -0.1565      0 -0.9502E-01  0 -0.9579E-01
   (  1,104, 91)  (  1,106, 91)  (  1,109, 90)  (  1,109, 91)  (  1,108, 99)
  0 -0.1170      0 -0.7598E-01  0 -0.1822      0 -0.1588      0 -0.1427    
   (  1,108,100)  (  1,108, 99)  (  1, 59,  8)  (  1, 59,  8)  (  1, 60,  8)
  0 -0.1433      0 -0.1303      0  0.4830      0 -0.9150E-01  0 -0.1419    
   (  1, 60,  7)  (  1, 56,  6)  (  1,105,149)  (  1, 60,  8)  (  1, 61,  7)
  0 -0.1138      0 -0.1132      0 -0.1141      0 -0.1121      0 -0.1270    
   (  1, 56,  6)  (  1, 56,  6)  (  1, 57,  5)  (  1, 60,  8)  (  1, 59,  8)
  0 -0.1933      0 -0.1979      0 -0.2450      0 -0.2545      0 -0.2432    
   (  1, 59,  9)  (  1, 56,  6)  (  1, 57,  6)  (  1, 59,  7)  (  1, 58,  6)
  0 -0.1882      0 -0.1183      0 -0.1289      0 -0.1674      0 -0.1426    
   (  1, 56,  6)  (  1, 56,  6)  (  1, 59,  8)  (  1, 60,  8)  (  1, 57,  6)
  0 -0.1093      0 -0.7826E-01  0 -0.7585E-01  0 -0.5799E-01  0 -0.4612E-01
   (  1, 59,  7)  (  1, 57,  6)  (  1, 55,  6)  (  1, 57,  6)  (  1, 59,  8)
  0 -0.3257E-01  0 -0.1860E-01  0 -0.9562E-02  0 -0.5508E-02  0 -0.7749E-02
   (  1, 60,  8)  (  1, 60,  7)  (  1, 57,  5)  (  1, 57,  5)  (  1, 83,121)
  0  0.9396E-02  0  0.1491E-01  0  0.1241E-01  0  0.8916E-02  0  0.6307E-02
   (  1, 23, 27)  (  1, 24, 26)  (  1, 24, 26)  (  1, 22, 18)  (  1, 22, 18)
  0  0.4284E-02  0  0.2585E-02  0  0.1693E-02  0  0.1700E-02  0  0.1588E-02
   (  1, 23, 18)  (  1, 22, 18)  (  1, 22, 18)  (  1, 41, 12)  (  1, 36, 15)
  0  0.1612E-02  0  0.1789E-02  0 -0.8232E-03  0 -0.6790E-03  0 -0.4987E-03
   (  1, 35, 14)  (  1, 33, 14)  (  1, 66,  5)  (  1, 65,  4)  (  1, 65,  2)
  1  -4.422      0   3.076      0  0.3731      0  0.3815      0  0.4762    
   (  1, 11, 32)  (  1,  9, 32)  (  1, 85,113)  (  1, 80,116)  (  1, 80,116)
  0 -0.2872      0 -0.4858      0 -0.5861      0 -0.4175      0 -0.1962    
   (  1, 88,127)  (  1, 88,128)  (  1, 92,132)  (  1, 93,132)  (  1, 87, 79)
  0 -0.1388      0 -0.1580      0 -0.5083E-01  0 -0.8840E-01  0 -0.1180    
   (  1, 88, 80)  (  1, 88,128)  (  1,108, 97)  (  1,101, 91)  (  1,102, 92)
  0 -0.1308      0 -0.1223      0 -0.9069E-01  0 -0.7284E-01  0 -0.5847E-01
   (  1,104, 91)  (  1,106, 91)  (  1,109, 91)  (  1,108,109)  (  1,108, 99)
  0 -0.6283E-01  0 -0.4982E-01  0 -0.4058E-01  0  0.1188      0 -0.8217E-01
   (  1,108,100)  (  1,108,100)  (  1,108,100)  (  1, 69, 63)  (  1, 57,  5)
  0 -0.7114E-01  0 -0.6909E-01  0  0.2691      0 -0.4452E-01  0 -0.6155E-01
   (  1, 57,  6)  (  1, 59,  7)  (  1,105,149)  (  1, 60,  8)  (  1, 57,  8)
  0 -0.5507E-01  0 -0.5764E-01  0 -0.5475E-01  0 -0.5273E-01  0 -0.5422E-01
   (  1, 58,  6)  (  1, 56,  6)  (  1, 57,  6)  (  1, 57,  7)  (  1, 59,  8)
  0 -0.7705E-01  0 -0.9788E-01  0 -0.1264      0 -0.1562      0 -0.1742    
   (  1, 61,  8)  (  1, 60,  8)  (  1, 60,  8)  (  1, 59,  7)  (  1, 57,  5)
  0 -0.1236      0 -0.7477E-01  0 -0.7613E-01  0 -0.8486E-01  0 -0.7468E-01
   (  1, 59,  7)  (  1, 56,  6)  (  1, 60,  9)  (  1, 59,  8)  (  1, 58,  7)
  0 -0.6030E-01  0 -0.4807E-01  0 -0.4359E-01  0 -0.4094E-01  0 -0.3499E-01
   (  1, 57,  6)  (  1, 57,  6)  (  1, 56,  6)  (  1, 61,  8)  (  1, 60,  8)
  0 -0.3219E-01  0 -0.2357E-01  0 -0.1127E-01  0 -0.5187E-02  0  0.9168E-03
   (  1, 59,  8)  (  1, 57,  5)  (  1, 56,  6)  (  1, 57,  5)  (  1, 97, 92)
  0  0.1194E-02  0 -0.5077E-02  0 -0.5086E-02  0 -0.4576E-02  0  0.3591E-02
   (  1, 99, 91)  (  1,118,121)  (  1,117,119)  (  1,121,118)  (  1, 22, 19)
  0  0.3673E-02  0  0.2386E-02  0 -0.1906E-02  0 -0.1856E-02  0 -0.1367E-02
   (  1, 22, 18)  (  1, 22, 18)  (  1,125,110)  (  1,128,104)  (  1,127,105)
  0  0.6284E-03  0  0.4880E-03  0  0.6044E-03  0  0.7011E-03  0  0.6364E-03
   (  1, 18, 23)  (  1, 21, 27)  (  1, 58, 36)  (  1, 56, 36)  (  1, 55, 37)
  1  -2.633      0   1.859      0 -0.1831      0 -0.1896      0 -0.2519    
   (  1, 11, 32)  (  1,  9, 32)  (  1, 92,120)  (  1, 93,121)  (  1, 96,123)
  0  0.8889      0   1.292      0 -0.3608      0 -0.2603      0 -0.1267    
   (  1,110,155)  (  1,110,155)  (  1, 92,132)  (  1, 92,132)  (  1, 87, 79)
  0 -0.7860E-01  0 -0.2225E-01  0 -0.3273E-01  0 -0.6188E-01  0 -0.7718E-01
   (  1, 89, 81)  (  1,108, 98)  (  1,108, 97)  (  1,101, 91)  (  1,103, 92)
  0 -0.7793E-01  0 -0.7021E-01  0 -0.5670E-01  0 -0.3964E-01  0 -0.3688E-01
   (  1,105, 91)  (  1,107, 91)  (  1,109, 91)  (  1,108, 99)  (  1,108, 99)
  0 -0.3338E-01  0 -0.3233E-01  0 -0.2671E-01  0  0.7325E-01  0 -0.4148E-01
   (  1,108,100)  (  1,108,100)  (  1,108,101)  (  1, 69, 63)  (  1, 57,  5)
  0 -0.3609E-01  0 -0.3843E-01  0 -0.2900E-01  0  0.1186      0 -0.2906E-01
   (  1, 57,  5)  (  1, 60,  8)  (  1, 61,  7)  (  1,107,150)  (  1, 56,  7)
  0 -0.3320E-01  0  0.1650      0 -0.2975E-01  0 -0.2519E-01  0 -0.2420E-01
   (  1, 57,  6)  (  1,110,155)  (  1, 58,  7)  (  1, 56,  6)  (  1, 59,  8)
  0 -0.4072E-01  0 -0.5264E-01  0 -0.6893E-01  0 -0.9345E-01  0 -0.1031    
   (  1, 61,  8)  (  1, 60,  8)  (  1, 60,  8)  (  1, 59,  7)  (  1, 57,  5)
  0 -0.9530E-01  0 -0.5411E-01  0 -0.4374E-01  0 -0.4576E-01  0 -0.4141E-01
   (  1, 57,  6)  (  1, 56,  6)  (  1, 60,  9)  (  1, 60,  8)  (  1, 59,  7)
  0 -0.3470E-01  0 -0.3023E-01  0 -0.2320E-01  0 -0.2378E-01  0 -0.2292E-01
   (  1, 57,  6)  (  1, 56,  6)  (  1, 56,  6)  (  1, 61,  7)  (  1, 60,  8)
  0 -0.1830E-01  0 -0.1218E-01  0 -0.7066E-02  0 -0.3793E-02  0 -0.1861E-02
   (  1, 59,  8)  (  1, 57,  5)  (  1, 57,  5)  (  1, 87,126)  (  1, 87,126)
  0  0.1706E-02  0  0.1971E-02  0  0.1697E-02  0  0.1764E-02  0 -0.3267E-02
   (  1, 83, 83)  (  1, 84, 85)  (  1, 89, 81)  (  1, 89, 81)  (  1, 57, 33)
  0 -0.2657E-02  0 -0.1873E-02  0 -0.1152E-02  0 -0.1632E-02  0 -0.1048E-02
   (  1,123,107)  (  1,126,109)  (  1,125,110)  (  1,128,104)  (  1,128,104)
  0  0.4940E-03  0  0.3907E-03  0  0.3082E-03  0  0.4015E-03  0  0.3535E-03
   (  1, 17, 21)  (  1, 22, 27)  (  1, 18, 27)  (  1, 57, 35)  (  1, 56, 34)
  1  -1.559      0  0.3960      0  0.5053      0 -0.5513      0 -0.1315    
   (  1, 11, 32)  (  1, 32, 43)  (  1,105,148)  (  1, 11, 33)  (  1, 96,123)
  0 -0.1252      0  0.7898      0  0.6284      0 -0.1434      0 -0.9698E-01
   (  1, 88,127)  (  1,110,155)  (  1,110,155)  (  1, 92,132)  (  1, 86, 79)
  0 -0.5357E-01  0 -0.4128E-01  0 -0.1492E-01  0 -0.3156E-01  0 -0.4170E-01
   (  1, 88, 80)  (  1, 78, 78)  (  1,108, 97)  (  1,101, 91)  (  1,103, 92)
  0 -0.4324E-01  0 -0.4118E-01  0 -0.3062E-01  0 -0.2546E-01  0 -0.2363E-01
   (  1,105, 91)  (  1,106, 91)  (  1,108, 94)  (  1,108, 96)  (  1,108, 99)
  0 -0.2103E-01  0 -0.2158E-01  0 -0.1751E-01  0 -0.1460E-01  0 -0.9830E-02
   (  1,108,100)  (  1,108, 99)  (  1,108,101)  (  1,103,112)  (  1,102,112)
  0 -0.8067E-02  0 -0.8189E-02  0 -0.1745E-01  0  0.6390E-01  0  0.7196E-01
   (  1,104,112)  (  1,104,112)  (  1, 61,  8)  (  1,107,150)  (  1,108,151)
  0 -0.1742E-01  0  0.9020E-01  0  0.7328E-01  0 -0.1239E-01  0 -0.1082E-01
   (  1, 57,  5)  (  1,110,155)  (  1,110,155)  (  1, 59,  8)  (  1, 59,  7)
  0 -0.1877E-01  0 -0.2088E-01  0 -0.3063E-01  0 -0.3569E-01  0 -0.5055E-01
   (  1, 61,  8)  (  1, 60,  8)  (  1, 60,  8)  (  1, 59,  7)  (  1, 57,  5)
  0 -0.5555E-01  0 -0.4760E-01  0 -0.3410E-01  0 -0.3274E-01  0 -0.2687E-01
   (  1, 57,  6)  (  1, 56,  6)  (  1, 60,  9)  (  1, 60,  8)  (  1, 60,  8)
  0 -0.2038E-01  0 -0.1818E-01  0 -0.1710E-01  0 -0.1516E-01  0 -0.1556E-01
   (  1, 59,  8)  (  1, 56,  6)  (  1, 56,  6)  (  1, 60,  7)  (  1, 60,  8)
  0 -0.1193E-01  0 -0.9081E-02  0 -0.5901E-02  0 -0.3281E-02  0 -0.1640E-02
   (  1, 59,  8)  (  1, 56,  6)  (  1, 57,  5)  (  1, 87,126)  (  1, 87,126)
  0  0.1185E-02  0  0.1056E-02  0  0.8864E-03  0 -0.1851E-02  0 -0.2448E-02
   (  1, 83, 82)  (  1, 85, 84)  (  1, 89, 81)  (  1, 58, 31)  (  1, 57, 33)
  0  0.1174E-02  0 -0.1319E-02  0  0.4964E-03  0 -0.9362E-03  0 -0.5579E-03
   (  1, 80, 79)  (  1,126,109)  (  1, 78, 78)  (  1,128,104)  (  1,128,104)
  0 -0.7289E-03  0 -0.4176E-03  0 -0.2287E-03  0 -0.2951E-03  0 -0.1182E-03
   (  1,114,138)  (  1,115,128)  (  1,117,123)  (  1,115,133)  (  1,121,119)
  1 -0.9431      0  0.6402      0  0.3533      0 -0.3268      0  0.3208    
   (  1, 11, 32)  (  1,  9, 32)  (  1,105,147)  (  1, 11, 33)  (  1, 20, 43)
  0 -0.7035E-01  0 -0.1047      0  0.3734      0 -0.5648E-01  0 -0.6296E-01
   (  1, 88,127)  (  1, 88,128)  (  1,110,155)  (  1, 88,125)  (  1, 86, 79)
  0 -0.3493E-01  0 -0.2468E-01  0 -0.8572E-02  0 -0.1577E-01  0 -0.2250E-01
   (  1, 88, 80)  (  1, 78, 78)  (  1,108, 97)  (  1,101, 91)  (  1,103, 92)
  0 -0.2283E-01  0 -0.2262E-01  0 -0.1713E-01  0 -0.1863E-01  0 -0.1433E-01
   (  1,106, 91)  (  1,106, 91)  (  1,108, 94)  (  1,108, 95)  (  1,108, 98)
  0 -0.1473E-01  0 -0.1244E-01  0 -0.1077E-01  0 -0.8695E-02  0 -0.6433E-02
   (  1,108, 99)  (  1,108, 99)  (  1,108,101)  (  1,100,112)  (  1,102,111)
  0 -0.5573E-02  0 -0.5835E-02  0 -0.1049E-01  0  0.3949E-01  0  0.4241E-01
   (  1,104,112)  (  1,105,112)  (  1, 60, 11)  (  1,107,150)  (  1,108,151)
  0 -0.1060E-01  0  0.5058E-01  0  0.4721E-01  0 -0.6627E-02  0 -0.7377E-02
   (  1, 57,  5)  (  1,110,155)  (  1,110,155)  (  1, 60,  9)  (  1, 61, 10)
  0 -0.1148E-01  0 -0.9889E-02  0 -0.1250E-01  0 -0.1549E-01  0 -0.2238E-01
   (  1, 67,  9)  (  1, 60,  8)  (  1, 60,  8)  (  1, 59,  7)  (  1, 57,  5)
  0 -0.2677E-01  0 -0.2909E-01  0 -0.2499E-01  0 -0.2339E-01  0 -0.1769E-01
   (  1, 57,  5)  (  1, 56,  6)  (  1, 59,  8)  (  1, 60,  8)  (  1, 59,  7)
  0 -0.1221E-01  0 -0.1052E-01  0 -0.1133E-01  0 -0.1024E-01  0 -0.9966E-02
   (  1, 59,  8)  (  1, 57,  7)  (  1, 56,  6)  (  1, 60,  7)  (  1, 60,  8)
  0 -0.8427E-02  0 -0.7013E-02  0 -0.4840E-02  0 -0.2435E-02  0 -0.2358E-02
   (  1, 58,  8)  (  1, 56,  6)  (  1, 57,  5)  (  1, 60,  7)  (  1, 38, 12)
  0 -0.1340E-02  0 -0.1110E-02  0 -0.7662E-03  0 -0.1229E-02  0 -0.1528E-02
   (  1, 16, 21)  (  1, 14, 21)  (  1, 17, 20)  (  1, 58, 31)  (  1, 57, 33)
  0  0.6858E-03  0 -0.7817E-03  0  0.3158E-03  0 -0.6703E-03  0 -0.6941E-03
   (  1, 80, 79)  (  1,125,108)  (  1, 78, 78)  (  1,128,104)  (  1,113,139)
  0 -0.5125E-03  0 -0.2758E-03  0 -0.1476E-03  0  0.3368E-04  1 -0.5660    
   (  1,114,138)  (  1,117,128)  (  1,117,124)  (  1,109, 89)  (  1, 11, 32)
  0  0.3938      0  0.2328      0 -0.2037      0  0.1784      0 -0.3959E-01
   (  1,  9, 32)  (  1,105,146)  (  1, 11, 33)  (  1, 20, 43)  (  1, 88,127)
  0 -0.5922E-01  0  0.2181      0 -0.3655E-01  0 -0.4284E-01  0 -0.2137E-01
   (  1, 88,128)  (  1,110,155)  (  1, 88,126)  (  1, 87,126)  (  1, 88, 80)
  0 -0.1488E-01  0 -0.4974E-02  0 -0.8230E-02  0 -0.1210E-01  0 -0.1120E-01
   (  1, 78, 78)  (  1,108, 97)  (  1,101, 91)  (  1,104, 91)  (  1,106, 91)
  0 -0.1236E-01  0 -0.9685E-02  0 -0.1180E-01  0 -0.8855E-02  0 -0.9349E-02
   (  1,106, 91)  (  1,108, 94)  (  1,108, 95)  (  1,108, 98)  (  1,108, 99)
  0 -0.7733E-02  0 -0.6837E-02  0 -0.5343E-02  0 -0.4286E-02  0 -0.3722E-02
   (  1,108, 99)  (  1,108,101)  (  1,100,112)  (  1,102,110)  (  1,104,112)
  0 -0.3965E-02  0 -0.2477E-02  0  0.2290E-01  0  0.2572E-01  0 -0.5749E-02
   (  1,105,112)  (  1,105,111)  (  1,107,150)  (  1,108,151)  (  1, 57,  5)
  0  0.3179E-01  0  0.2694E-01  0  0.1923E-01  0 -0.4079E-02  0 -0.6096E-02
   (  1,110,155)  (  1,110,155)  (  1,110,155)  (  1, 61, 10)  (  1, 67,  9)
  0 -0.6242E-02  0 -0.5523E-02  0 -0.7253E-02  0 -0.1021E-01  0 -0.1345E-01
   (  1, 66,  9)  (  1, 60,  8)  (  1, 59,  7)  (  1, 57,  5)  (  1, 57,  5)
  0 -0.1675E-01  0 -0.1626E-01  0 -0.1603E-01  0 -0.1160E-01  0 -0.7659E-02
   (  1, 56,  6)  (  1, 59,  8)  (  1, 60,  8)  (  1, 59,  7)  (  1, 59,  8)
  0 -0.5698E-02  0 -0.6187E-02  0 -0.5920E-02  0 -0.5580E-02  0 -0.4765E-02
   (  1, 57,  7)  (  1, 59,  8)  (  1, 57,  6)  (  1, 60,  8)  (  1, 58,  8)
  0 -0.4271E-02  0 -0.3124E-02  0 -0.1749E-02  0 -0.6962E-03  0 -0.7872E-03
   (  1, 56,  6)  (  1, 57,  5)  (  1, 60,  7)  (  1, 60,  7)  (  1, 13, 22)
  0 -0.5826E-03  0 -0.1461E-02  0 -0.1433E-02  0 -0.1960E-02  0 -0.1782E-02
   (  1, 22, 18)  (  1,105,155)  (  1,108,150)  (  1,107,150)  (  1,107,150)
  0 -0.1326E-02  0  0.1837E-03  0 -0.4033E-03  0 -0.4704E-03  0  0.4497E-04
   (  1,110,155)  (  1, 78, 78)  (  1,128,104)  (  1,114,138)  (  1,105, 95)
  0  0.3850E-04  1 -0.3259      0  0.2317      0  0.9660E-01  0 -0.1257    
   (  1,106, 93)  (  1, 11, 32)  (  1,  9, 32)  (  1,114,138)  (  1, 11, 33)
  0  0.1023      0 -0.2286E-01  0 -0.3413E-01  0 -0.4725E-01  0 -0.2348E-01
   (  1, 20, 43)  (  1, 88,127)  (  1, 88,128)  (  1, 91,131)  (  1, 88,126)
  0 -0.2705E-01  0 -0.1347E-01  0 -0.9437E-02  0 -0.2860E-01  0 -0.4564E-02
   (  1, 87,126)  (  1, 88, 80)  (  1, 78, 78)  (  1, 99,141)  (  1,101, 91)
  0 -0.6655E-02  0 -0.6208E-02  0 -0.6820E-02  0 -0.5657E-02  0 -0.6988E-02
   (  1,104, 91)  (  1,106, 91)  (  1,106, 91)  (  1,108, 94)  (  1,107, 94)
  0 -0.5453E-02  0 -0.5796E-02  0 -0.4830E-02  0 -0.4377E-02  0 -0.3220E-02
   (  1,108, 97)  (  1,108, 98)  (  1,108, 99)  (  1,108,101)  (  1,103,111)
  0 -0.2742E-02  0 -0.2489E-02  0 -0.2592E-02  0 -0.1672E-02  0 -0.1188E-02
   (  1,103,111)  (  1,104,112)  (  1,105,112)  (  1,105,111)  (  1,108,101)
  0  0.1511E-01  0  0.1684E-01  0  0.1938E-01  0  0.1609E-01  0  0.1148E-01
   (  1,108,151)  (  1,107,155)  (  1,110,155)  (  1,110,155)  (  1,107,155)
  0 -0.1954E-02  0 -0.2900E-02  0 -0.2660E-02  0 -0.2130E-02  0 -0.2723E-02
   (  1, 61, 10)  (  1, 67,  9)  (  1, 66,  9)  (  1, 60,  8)  (  1, 59,  7)
  0 -0.3837E-02  0 -0.5658E-02  0 -0.7881E-02  0 -0.8689E-02  0 -0.9188E-02
   (  1, 57,  5)  (  1, 57,  5)  (  1, 56,  6)  (  1, 59,  8)  (  1, 60,  8)
  0 -0.6990E-02  0 -0.4846E-02  0 -0.3371E-02  0 -0.3709E-02  0 -0.3806E-02
   (  1, 60,  8)  (  1, 59,  8)  (  1, 57,  7)  (  1, 59,  8)  (  1, 57,  6)
  0 -0.3469E-02  0 -0.2963E-02  0 -0.2696E-02  0 -0.2109E-02  0 -0.1263E-02
   (  1, 59,  7)  (  1, 58,  8)  (  1, 56,  6)  (  1, 57,  5)  (  1, 60,  7)
  0 -0.5709E-03  0 -0.4205E-03  0 -0.4132E-03  0 -0.2655E-03  0 -0.9043E-03
   (  1, 60,  7)  (  1, 61, 12)  (  1, 22, 18)  (  1, 57, 14)  (  1,108,150)
  0 -0.1151E-02  0 -0.1092E-02  0 -0.7767E-03  0 -0.2315E-03  0 -0.6756E-03
   (  1,107,150)  (  1,107,150)  (  1,110,155)  (  1,128,104)  (  1,103,154)
  1 -0.1956      0  0.1401      0  0.5995E-01  0 -0.7629E-01  0  0.5877E-01
   (  1, 11, 32)  (  1,  9, 32)  (  1,114,138)  (  1, 11, 33)  (  1, 20, 43)
  0 -0.1313E-01  0 -0.1938E-01  0 -0.2049E-01  0 -0.1489E-01  0 -0.1615E-01
   (  1, 88,127)  (  1, 88,128)  (  1, 88,127)  (  1, 88,126)  (  1, 87,126)
  0 -0.7803E-02  0 -0.5815E-02  0 -0.1857E-01  0 -0.2535E-02  0 -0.3603E-02
   (  1, 88, 80)  (  1, 89, 81)  (  1, 99,141)  (  1,101, 91)  (  1,104, 91)
  0 -0.3478E-02  0 -0.3808E-02  0 -0.3257E-02  0 -0.3898E-02  0 -0.3272E-02
   (  1,106, 91)  (  1,106, 91)  (  1,107, 93)  (  1,107, 94)  (  1,108, 97)
  0 -0.3447E-02  0 -0.2840E-02  0 -0.2664E-02  0 -0.1935E-02  0 -0.1659E-02
   (  1,108, 97)  (  1,108, 99)  (  1,108,101)  (  1,103,111)  (  1,104,111)
  0 -0.1528E-02  0 -0.1637E-02  0 -0.1047E-02  0 -0.6992E-03  0  0.8543E-02
   (  1,104,112)  (  1,105,112)  (  1,105,111)  (  1,108,101)  (  1,108,150)
  0  0.9411E-02  0  0.1153E-01  0  0.9528E-02  0  0.6695E-02  0 -0.9906E-03
   (  1,110,155)  (  1,110,155)  (  1,110,155)  (  1,107,155)  (  1, 61, 10)
  0 -0.1420E-02  0 -0.1274E-02  0 -0.1224E-02  0 -0.1135E-02  0 -0.1560E-02
   (  1, 67,  9)  (  1, 66,  9)  (  1, 65,  2)  (  1, 59,  7)  (  1, 58,  6)
  0 -0.2367E-02  0 -0.3522E-02  0 -0.4093E-02  0 -0.4557E-02  0 -0.3744E-02
   (  1, 57,  5)  (  1, 56,  6)  (  1, 59,  8)  (  1, 60,  8)  (  1, 60,  8)
  0 -0.2872E-02  0 -0.1963E-02  0 -0.2062E-02  0 -0.2317E-02  0 -0.2209E-02
   (  1, 59,  8)  (  1, 58,  8)  (  1, 59,  8)  (  1, 57,  6)  (  1, 59,  7)
  0 -0.1817E-02  0 -0.1720E-02  0 -0.1373E-02  0 -0.8916E-03  0 -0.4187E-03
   (  1, 58,  7)  (  1, 56,  6)  (  1, 57,  5)  (  1, 60,  7)  (  1, 60,  7)
  0 -0.2968E-03  0 -0.2653E-03  0 -0.1855E-03  0 -0.5624E-03  1 -0.1174    
   (  1, 61, 12)  (  1, 22, 18)  (  1, 57, 14)  (  1,108,150)  (  1, 11, 32)
  0  0.8479E-01  0  0.3648E-01  0 -0.4641E-01  0 -0.1007E-01  0 -0.8225E-02
   (  1,  9, 32)  (  1,114,138)  (  1, 11, 33)  (  1, 96,123)  (  1, 88,127)
  0 -0.1165E-01  0 -0.1302E-01  0 -0.9751E-02  0 -0.9906E-02  0 -0.4446E-02
   (  1, 88,128)  (  1, 88,127)  (  1, 88,126)  (  1, 87,126)  (  1, 88, 80)
  0 -0.3561E-02  0 -0.1191E-01  0 -0.1450E-02  0 -0.1999E-02  0 -0.2041E-02
   (  1, 89, 81)  (  1,100,141)  (  1,101, 91)  (  1,104, 91)  (  1,106, 91)
  0 -0.2226E-02  0 -0.1978E-02  0 -0.2172E-02  0 -0.1936E-02  0 -0.2073E-02
   (  1,105, 91)  (  1,107, 92)  (  1,107, 94)  (  1,108, 97)  (  1,108, 97)
  0 -0.1670E-02  0 -0.1604E-02  0 -0.1144E-02  0 -0.9815E-03  0 -0.8995E-03
   (  1,108, 99)  (  1,108,101)  (  1,103,111)  (  1,104,112)  (  1,104,112)
  0 -0.9990E-03  0 -0.6551E-03  0 -0.4632E-03  0  0.5064E-02  0  0.5562E-02
   (  1,105,112)  (  1,105,111)  (  1,108,103)  (  1,108,150)  (  1,110,155)
  0  0.7001E-02  0  0.5978E-02  0  0.4136E-02  0 -0.1963E-03  0 -0.7609E-03
   (  1,110,155)  (  1,110,155)  (  1,107,155)  (  1,108, 92)  (  1, 67,  9)
  0 -0.6448E-03  0 -0.5813E-03  0 -0.6719E-03  0 -0.6310E-03  0 -0.9397E-03
   (  1, 66,  9)  (  1, 65,  2)  (  1, 65,  2)  (  1, 58,  6)  (  1, 57,  5)
  0 -0.1415E-02  0 -0.1628E-02  0 -0.1814E-02  0 -0.1590E-02  0 -0.1378E-02
   (  1, 56,  6)  (  1, 59,  8)  (  1, 60,  8)  (  1, 60,  8)  (  1, 59,  8)
  0 -0.1030E-02  0 -0.1131E-02  0 -0.1461E-02  0 -0.1601E-02  0 -0.1423E-02
   (  1, 58,  8)  (  1, 59,  8)  (  1, 57,  6)  (  1, 59,  7)  (  1, 58,  7)
  0 -0.1374E-02  0 -0.1120E-02  0 -0.7666E-03  0 -0.3810E-03  0 -0.2144E-03
   (  1, 56,  6)  (  1, 57,  5)  (  1, 60,  8)  (  1, 60,  7)  (  1, 57,  7)
  0 -0.1890E-03  0 -0.1613E-03  1 -0.7049E-01  0  0.5121E-01  0  0.2188E-01
   (  1, 59, 13)  (  1, 57, 14)  (  1, 11, 32)  (  1,  9, 32)  (  1,114,138)
  0 -0.2795E-01  0 -0.6186E-02  0 -0.4965E-02  0 -0.6711E-02  0 -0.7779E-02
   (  1, 11, 33)  (  1, 96,123)  (  1, 88,127)  (  1, 88,128)  (  1, 88,127)
  0 -0.6101E-02  0 -0.5877E-02  0 -0.2729E-02  0 -0.2098E-02  0 -0.6899E-02
   (  1, 88,126)  (  1, 87,126)  (  1, 88,124)  (  1, 89, 81)  (  1,100,141)
  0 -0.8248E-03  0 -0.1094E-02  0 -0.1178E-02  0 -0.1326E-02  0 -0.1160E-02
   (  1,101, 91)  (  1,104, 91)  (  1,106, 91)  (  1,105, 91)  (  1,106, 92)
  0 -0.1192E-02  0 -0.1106E-02  0 -0.1242E-02  0 -0.9836E-03  0 -0.9493E-03
   (  1,107, 94)  (  1,108, 97)  (  1,108, 96)  (  1,108, 99)  (  1,108,101)
  0 -0.6642E-03  0 -0.5847E-03  0 -0.5412E-03  0 -0.5996E-03  0 -0.3881E-03
   (  1,103,111)  (  1,104,112)  (  1,104,112)  (  1,105,112)  (  1,105,111)
  0 -0.2696E-03  0 -0.2404E-03  0  0.3227E-02  0  0.3912E-02  0  0.3301E-02
   (  1,108,103)  (  1,108,101)  (  1,110,155)  (  1,110,155)  (  1,110,155)
  0  0.2191E-02  0 -0.1141E-03  0 -0.3890E-03  0 -0.3181E-03  0 -0.2749E-03
   (  1,110,155)  (  1,109, 93)  (  1, 67,  9)  (  1, 66,  9)  (  1, 65,  2)
  0 -0.3143E-03  0 -0.2793E-03  0 -0.3774E-03  0 -0.5778E-03  0 -0.6550E-03
   (  1, 65,  2)  (  1, 58,  5)  (  1, 57,  5)  (  1, 56,  6)  (  1, 59,  8)
  0 -0.7514E-03  0 -0.7010E-03  0 -0.6492E-03  0 -0.5021E-03  0 -0.5409E-03
   (  1, 60,  8)  (  1, 60,  8)  (  1, 59,  8)  (  1, 58,  8)  (  1, 59,  8)
  0 -0.7496E-03  0 -0.9025E-03  0 -0.8361E-03  0 -0.8148E-03  0 -0.6889E-03
   (  1, 57,  6)  (  1, 59,  7)  (  1, 58,  7)  (  1, 56,  6)  (  1, 57,  5)
  0 -0.5155E-03  0 -0.2716E-03  0 -0.1533E-03  0 -0.1241E-03  0 -0.1108E-03
   (  1, 60,  8)  (  1, 60,  8)  (  1, 58,  7)  (  1, 59, 13)  (  1, 57, 14)
  1 -0.4231E-01  0  0.3092E-01  0  0.1301E-01  0 -0.1685E-01  0 -0.3729E-02
   (  1, 11, 32)  (  1,  9, 32)  (  1,114,138)  (  1, 11, 33)  (  1, 96,123)
  0 -0.3033E-02  0 -0.3943E-02  0 -0.4593E-02  0 -0.3730E-02  0 -0.3472E-02
   (  1, 88,127)  (  1, 88,128)  (  1, 88,127)  (  1, 88,126)  (  1, 87,126)
  0 -0.1576E-02  0 -0.1219E-02  0 -0.3873E-02  0 -0.4450E-03  0 -0.6080E-03
   (  1, 88,124)  (  1, 89, 81)  (  1,101,141)  (  1,108, 97)  (  1,104, 91)
  0 -0.6839E-03  0 -0.7873E-03  0 -0.6899E-03  0 -0.6655E-03  0 -0.6322E-03
   (  1,106, 91)  (  1,105, 91)  (  1,106, 92)  (  1,107, 94)  (  1,108, 97)
  0 -0.7347E-03  0 -0.5921E-03  0 -0.5607E-03  0 -0.3413E-03  0 -0.3465E-03
   (  1,108, 96)  (  1,108,100)  (  1,108,101)  (  1,108, 99)  (  1,104,112)
  0 -0.3248E-03  0 -0.3567E-03  0 -0.2279E-03  0 -0.1570E-03  0 -0.1436E-03
   (  1,104,112)  (  1,105,112)  (  1,105,111)  (  1,108,103)  (  1,108,101)
  0  0.1920E-02  0  0.2118E-02  0  0.1727E-02  0  0.1152E-02  0 -0.6645E-04
   (  1,110,155)  (  1,110,155)  (  1,110,155)  (  1,110,155)  (  1,109, 93)
  0 -0.2015E-03  0 -0.1576E-03  0 -0.1326E-03  1 -0.2540E-01  0  0.1862E-01
   (  1, 67,  9)  (  1, 66,  9)  (  1, 65,  2)  (  1, 11, 32)  (  1,  9, 32)
  0  0.7674E-02  0 -0.1018E-01  0 -0.2213E-02  0 -0.1854E-02  0 -0.2355E-02
   (  1,114,138)  (  1, 11, 33)  (  1, 96,123)  (  1, 88,127)  (  1, 88,128)
  0 -0.2697E-02  0 -0.2234E-02  0 -0.2023E-02  0 -0.8445E-03  0 -0.7182E-03
   (  1, 88,127)  (  1, 88,126)  (  1, 87,126)  (  1, 88, 80)  (  1, 89, 81)
  0 -0.2375E-03  0 -0.2548E-03  0 -0.3428E-03  0 -0.3989E-03  0 -0.4647E-03
   (  1,108, 98)  (  1,108, 97)  (  1,104, 91)  (  1,106, 91)  (  1,105, 91)
  0 -0.4038E-03  0 -0.3774E-03  0 -0.3687E-03  0 -0.4345E-03  0 -0.3535E-03
   (  1,106, 92)  (  1,107, 94)  (  1,108, 97)  (  1,108, 96)  (  1,108,100)
  0 -0.3348E-03  0 -0.2049E-03  0 -0.2085E-03  0 -0.1952E-03  0 -0.2136E-03
   (  1,108,101)  (  1,108, 99)  (  1,105,112)  (  1,104,112)  (  1,105,112)
  0 -0.1365E-03  0 -0.9506E-04  0 -0.8619E-04  0  0.1175E-02  0  0.1161E-02
   (  1,105,111)  (  1,104,108)  (  1,108,101)  (  1,110,155)  (  1,110,155)
  0  0.9261E-03  0  0.2196E-03  0 -0.4023E-04  1 -0.1525E-01  0  0.1118E-01
   (  1,109,155)  (  1, 14, 21)  (  1,109, 93)  (  1, 11, 32)  (  1,  9, 32)
  0  0.4478E-02  0 -0.6163E-02  0 -0.1311E-02  0 -0.1133E-02  0 -0.1428E-02
   (  1,114,138)  (  1, 11, 33)  (  1, 96,123)  (  1, 88,127)  (  1, 88,128)
  0 -0.1593E-02  0 -0.1325E-02  0 -0.1172E-02  0 -0.4933E-03  0 -0.4237E-03
[...]
  0   5.421      0  -4.493      0   5.804      0   4.341      0  -6.449    
   (  1,  9, 32)  (  1,  9, 32)  (  1, 36, 46)  (  1,  7, 30)  (  1,  9, 32)
  0   11.02      0   5.223      0   9.203      0   8.658      0   3.217    
   (  1, 18, 40)  (  1,  7, 30)  (  1, 10, 32)  (  1, 18, 40)  (  1, 16, 41)
  0   5.139      0   7.250      0   5.103      0  -4.295      0  -5.421    
   (  1, 12, 34)  (  1, 17, 36)  (  1, 15, 34)  (  1,  9, 32)  (  1, 17, 39)
  0  -3.389      0   4.066      0  -3.008      0   1.946      0  -1.469    
   (  1, 17, 36)  (  1, 10, 32)  (  1, 12, 34)  (  1, 18, 40)  (  1, 18, 40)
  0   1.139      0 -0.7958      0 -0.8645      0  0.5033      0 -0.9239    
   (  1, 14, 35)  (  1,  8, 31)  (  1, 18, 40)  (  1,  8, 31)  (  1,  8, 31)
  0  0.5471      0  0.4238      0 -0.4024      0 -0.3008      0  0.2238    
   (  1, 10, 32)  (  1,  8, 31)  (  1,  8, 31)  (  1, 12, 34)  (  1,  8, 31)
  0 -0.1549      0 -0.1212      0  0.1062      0 -0.5070E-01  1  -248.2    
   (  1,  8, 31)  (  1,  9, 32)  (  1,  8, 31)  (  1, 19, 43)  (  1, 11, 33)
  0   78.44      0   171.9      0  -85.06      0   275.3      0   97.59    
   (  1,  9, 32)  (  1, 11, 33)  (  1, 11, 33)  (  1,  8, 30)  (  1, 11, 33)
  0  -273.7      0   464.9      0   47.89      0  -343.6      0   245.0    
   (  1,  8, 30)  (  1,  8, 30)  (  1, 11, 33)  (  1,  8, 30)  (  1,  8, 30)
  0   27.42      0  -203.8      0   169.5      0   153.2      0  -203.1    
   (  1, 17, 38)  (  1, 12, 33)  (  1,  8, 30)  (  1, 11, 32)  (  1, 12, 33)
  0  -14.87      0   177.0      0  -116.8      0   19.89      0  -18.85    
   (  1,  9, 32)  (  1, 11, 32)  (  1, 12, 33)  (  1, 14, 36)  (  1,  8, 31)
  0  -74.33      0   13.87      0  -9.164      0   46.18      0   12.15    
   (  1, 12, 33)  (  1, 11, 33)  (  1,  8, 31)  (  1,  8, 30)  (  1, 11, 33)
  0   5.355      0   51.56      0   7.742      0  -5.264      0   33.34    
   (  1,  9, 32)  (  1,  8, 30)  (  1, 11, 33)  (  1, 17, 38)  (  1,  8, 30)
  0   4.174      0  -6.253      0   4.230      0   2.656      0   2.630    
   (  1, 11, 33)  (  1, 17, 38)  (  1, 17, 38)  (  1, 11, 33)  (  1,  9, 32)
  0   4.394      0   1.976      0   2.219      0  -3.257      0   4.470    
   (  1, 17, 38)  (  1, 11, 33)  (  1,  7, 30)  (  1,  9, 32)  (  1, 18, 40)
  0   3.098      0   5.478      0   5.690      0   1.872      0   3.628    
   (  1,  7, 30)  (  1, 10, 32)  (  1, 17, 36)  (  1,  7, 30)  (  1, 12, 34)
  0  -3.388      0   2.351      0  -2.304      0   9.634      0  -1.598    
   (  1, 12, 34)  (  1, 14, 34)  (  1,  9, 32)  (  1,  9, 31)  (  1, 16, 39)
  0   2.393      0  -1.832      0 -0.7675      0 -0.8658      0  0.7332    
   (  1, 10, 32)  (  1, 12, 34)  (  1,  8, 31)  (  1, 18, 40)  (  1, 17, 36)
  0 -0.4702      0 -0.3352      0  0.2929      0 -0.5426      0  0.3280    
   (  1,  8, 31)  (  1,  9, 32)  (  1,  8, 31)  (  1,  8, 31)  (  1, 10, 32)
  0  0.2389      0 -0.2483      0  0.1596      0  0.1585      0 -0.1201    
   (  1,  8, 31)  (  1,  8, 31)  (  1, 10, 32)  (  1,  8, 31)  (  1,  8, 31)
  0 -0.8076E-01  1  -143.5      0   49.52      0   100.6      0  -56.26    
   (  1,  9, 32)  (  1, 11, 33)  (  1,  9, 32)  (  1, 11, 33)  (  1, 11, 33)
  0   154.1      0   57.21      0   32.61      0   277.1      0   29.88    
   (  1,  8, 30)  (  1, 11, 33)  (  1, 10, 32)  (  1,  8, 30)  (  1, 11, 33)
  0  -203.5      0   156.3      0   17.22      0  -123.0      0   104.9    
   (  1,  8, 30)  (  1,  8, 30)  (  1, 17, 38)  (  1, 12, 33)  (  1,  8, 30)
  0   83.49      0  -118.2      0  -8.460      0   103.4      0  -71.72    
   (  1, 11, 32)  (  1, 12, 33)  (  1,  9, 32)  (  1, 11, 32)  (  1, 12, 33)
  0   11.84      0  -11.71      0  -47.19      0   7.719      0  -6.003    
   (  1, 14, 36)  (  1,  8, 31)  (  1, 12, 33)  (  1, 11, 33)  (  1,  8, 31)
  0   26.11      0   7.103      0   3.180      0   30.11      0   4.688    
   (  1,  8, 30)  (  1, 11, 33)  (  1,  9, 32)  (  1,  8, 30)  (  1, 11, 33)
  0  -1.684      0   21.16      0   2.467      0  -3.466      0   9.361    
   (  1, 24, 45)  (  1,  8, 30)  (  1, 11, 33)  (  1, 17, 38)  (  1,  8, 30)
  0   1.502      0   1.272      0   2.205      0  0.9915      0   1.174    
   (  1, 11, 33)  (  1,  9, 32)  (  1, 17, 38)  (  1, 11, 33)  (  1,  8, 31)
  0  -1.445      0  -1.506      0   1.581      0   2.868      0   2.963    
   (  1,  9, 32)  (  1,  8, 31)  (  1,  7, 30)  (  1, 10, 32)  (  1, 17, 36)
  0   1.158      0   2.015      0  -1.779      0   1.348      0  -1.281    
   (  1,  7, 30)  (  1, 12, 34)  (  1, 12, 34)  (  1, 14, 34)  (  1,  9, 32)
  0   5.567      0 -0.9224      0   1.371      0  -1.136      0 -0.7435    
   (  1,  9, 31)  (  1, 16, 39)  (  1, 10, 32)  (  1, 12, 34)  (  1, 14, 36)
  0 -0.5857      0  0.4606      0 -0.2641      0 -0.2089      0  0.1609    
   (  1, 18, 40)  (  1, 17, 36)  (  1,  8, 31)  (  1,  9, 32)  (  1,  8, 31)
  0 -0.3127      0  0.1959      0  0.1454      0 -0.1587      0  0.9647E-01
   (  1,  8, 31)  (  1, 10, 32)  (  1,  8, 31)  (  1,  8, 31)  (  1, 10, 32)
  1  -85.56      0   30.48      0   58.89      0  -35.74      0   91.03    
   (  1, 11, 33)  (  1,  9, 32)  (  1, 11, 33)  (  1, 11, 33)  (  1,  8, 30)
  0   32.82      0   18.99      0   166.0      0   18.05      0  -115.1    
   (  1, 11, 33)  (  1, 10, 32)  (  1,  8, 30)  (  1, 11, 33)  (  1,  8, 30)
  0   94.89      0   10.40      0  -73.46      0   61.20      0   45.87    
   (  1,  8, 30)  (  1, 17, 38)  (  1, 12, 33)  (  1,  8, 30)  (  1, 11, 32)
  0  -68.77      0  -4.798      0   58.41      0  -42.37      0   6.996    
   (  1, 12, 33)  (  1,  9, 32)  (  1, 11, 32)  (  1, 12, 33)  (  1, 14, 36)
  0  -6.888      0  -28.62      0   4.374      0  -3.704      0   14.79    
   (  1,  8, 31)  (  1, 12, 33)  (  1, 11, 33)  (  1,  8, 31)  (  1,  8, 30)
  0   4.179      0   1.900      0   16.98      0   2.723      0 -0.9758    
   (  1, 11, 33)  (  1,  9, 32)  (  1,  8, 30)  (  1, 11, 33)  (  1, 24, 45)
  0   12.11      0   1.445      0  -1.910      0   5.407      0  0.8277    
   (  1,  8, 30)  (  1, 11, 33)  (  1, 17, 38)  (  1,  8, 30)  (  1, 11, 33)
  0  0.6588      0   1.135      0  0.4818      0  0.5582      0 -0.6650    
   (  1,  9, 32)  (  1, 17, 38)  (  1, 11, 33)  (  1,  8, 31)  (  1,  9, 32)
  0 -0.6915      0  0.7809      0   1.413      0   1.508      0  0.6443    
   (  1,  8, 31)  (  1,  7, 30)  (  1, 10, 32)  (  1, 17, 36)  (  1,  7, 30)
  0   1.117      0 -0.9539      0  0.7235      0 -0.7325      0   3.200    
   (  1, 12, 34)  (  1, 12, 34)  (  1, 14, 34)  (  1,  9, 32)  (  1,  9, 31)
  0 -0.5222      0  0.7891      0 -0.6906      0 -0.4553      0 -0.3602    
   (  1, 16, 39)  (  1, 10, 32)  (  1, 12, 34)  (  1, 14, 36)  (  1, 18, 40)
  0  0.2748      0 -0.2900      0 -0.1320      0  0.9150E-01  1  -51.14    
   (  1, 17, 36)  (  1, 14, 35)  (  1,  9, 32)  (  1,  9, 32)  (  1, 11, 33)
  0   18.82      0   34.75      0  -22.60      0   55.21      0   19.50    
   (  1,  9, 32)  (  1, 11, 33)  (  1, 11, 33)  (  1,  8, 30)  (  1, 11, 33)
  0   11.17      0   100.7      0   11.04      0  -65.73      0   57.12    
   (  1, 10, 32)  (  1,  8, 30)  (  1, 11, 33)  (  1,  8, 30)  (  1,  8, 30)
  0   6.329      0  -45.13      0   35.91      0   25.99      0  -41.54    
   (  1, 17, 38)  (  1, 12, 33)  (  1,  8, 30)  (  1, 11, 32)  (  1, 12, 33)
  0  -2.831      0   34.12      0  -24.78      0   4.220      0  -4.088    
   (  1,  9, 32)  (  1, 11, 32)  (  1, 12, 33)  (  1, 14, 36)  (  1,  8, 31)
  0  -17.21      0   2.523      0  -2.249      0   8.422      0   2.418    
   (  1, 12, 33)  (  1, 11, 33)  (  1,  8, 31)  (  1,  8, 30)  (  1, 11, 33)
  0   1.126      0   9.821      0   1.625      0 -0.5842      0   7.232    
   (  1,  9, 32)  (  1,  8, 30)  (  1, 11, 33)  (  1, 24, 45)  (  1,  8, 30)
  0  0.8964      0  -1.130      0   3.320      0  0.4880      0  0.3724    
   (  1, 11, 33)  (  1, 17, 38)  (  1,  8, 30)  (  1, 11, 33)  (  1,  9, 32)
  0  0.6282      0  0.2499      0  0.2764      0 -0.3096      0 -0.3163    
   (  1, 17, 38)  (  1, 11, 33)  (  1,  8, 31)  (  1,  9, 32)  (  1,  8, 31)
  0  0.3636      0  0.6495      0  0.6974      0  0.3194      0  0.5737    
   (  1,  7, 30)  (  1, 10, 32)  (  1, 17, 36)  (  1,  7, 30)  (  1, 12, 34)
  0 -0.5038      0  0.3881      0 -0.4348      0   2.047      0 -0.3358    
   (  1, 12, 34)  (  1, 14, 34)  (  1,  9, 32)  (  1,  9, 31)  (  1, 16, 39)
  0  0.5214      0 -0.4744      0 -0.3149      0 -0.2556      0  0.1878    
   (  1, 10, 32)  (  1, 12, 34)  (  1, 14, 36)  (  1, 18, 40)  (  1, 17, 36)
  0 -0.2049      0 -0.9754E-01  1  -30.61      0   11.53      0   20.59    
   (  1, 14, 35)  (  1,  9, 32)  (  1, 11, 33)  (  1,  9, 32)  (  1, 11, 33)
  0  -13.87      0   33.28      0   11.59      0   6.484      0   60.25    
   (  1, 11, 33)  (  1,  8, 30)  (  1, 11, 33)  (  1, 10, 32)  (  1,  8, 30)
  0   6.643      0  -37.51      0   33.44      0   2.234      0  -27.20    
   (  1, 11, 33)  (  1,  8, 30)  (  1,  8, 30)  (  1, 11, 33)  (  1, 12, 33)
  0   20.63      0   14.50      0  -24.56      0  -1.671      0   19.81    
   (  1,  8, 30)  (  1, 11, 32)  (  1, 12, 33)  (  1,  9, 32)  (  1, 11, 32)
  0  -14.00      0   2.483      0  -2.406      0  -10.16      0   1.443    
   (  1, 12, 33)  (  1, 14, 36)  (  1,  8, 31)  (  1, 12, 33)  (  1, 11, 33)
  0  -1.336      0   4.892      0   1.417      0  0.6584      0   5.611    
   (  1,  8, 31)  (  1,  8, 30)  (  1, 11, 33)  (  1,  9, 32)  (  1,  8, 30)
  0  0.9490      0 -0.3467      0   4.202      0  0.5227      0 -0.6371    
   (  1, 11, 33)  (  1, 24, 45)  (  1,  8, 30)  (  1, 11, 33)  (  1, 17, 38)
  0   1.916      0  0.2719      0  0.2023      0  0.3321      0  0.1257    
   (  1,  8, 30)  (  1, 11, 33)  (  1,  9, 32)  (  1, 17, 38)  (  1, 11, 33)
  0  0.1362      0 -0.1447      0 -0.1446      0  0.1678      0  0.2968    
   (  1,  8, 31)  (  1,  9, 32)  (  1,  8, 31)  (  1,  7, 30)  (  1, 10, 32)
  0  0.3260      0  0.1560      0  0.2849      0 -0.2471      0  0.1902    
   (  1, 17, 36)  (  1,  7, 30)  (  1, 12, 34)  (  1, 12, 34)  (  1, 14, 34)
  0 -0.2257      0   1.110      0 -0.1797      0  0.2860      0 -0.2705    
   (  1,  9, 32)  (  1,  9, 31)  (  1, 16, 39)  (  1, 10, 32)  (  1, 12, 34)
  0 -0.1858      0 -0.1530      0  0.1079      0 -0.1207      0 -0.5906E-01
   (  1, 14, 36)  (  1, 18, 40)  (  1, 17, 36)  (  1, 14, 35)  (  1,  9, 32)
  1  -18.34      0   7.065      0   12.37      0  -8.389      0   19.98    
   (  1, 11, 33)  (  1,  9, 32)  (  1, 11, 33)  (  1, 11, 33)  (  1,  8, 30)
  0   6.968      0   3.794      0   35.80      0   3.976      0  -21.58    
   (  1, 11, 33)  (  1, 10, 32)  (  1,  8, 30)  (  1, 11, 33)  (  1,  8, 30)
  0   19.74      0   1.330      0  -16.25      0   11.90      0   8.183    
   (  1,  8, 30)  (  1, 11, 33)  (  1, 12, 33)  (  1,  8, 30)  (  1, 11, 32)
  0  -14.51      0 -0.9852      0   11.58      0  -7.943      0   1.457    
   (  1, 12, 33)  (  1,  9, 32)  (  1, 11, 32)  (  1, 12, 33)  (  1, 14, 36)
  0  -1.415      0  -5.992      0  0.8329      0 -0.7877      0   2.863    
   (  1,  8, 31)  (  1, 12, 33)  (  1, 11, 33)  (  1,  8, 31)  (  1,  8, 30)
  0  0.8331      0  0.3841      0   3.229      0  0.5577      0 -0.2076    
   (  1, 11, 33)  (  1,  9, 32)  (  1,  8, 30)  (  1, 11, 33)  (  1, 24, 45)
  0   2.446      0  0.3050      0 -0.3659      0   1.116      0  0.1540    
   (  1,  8, 30)  (  1, 11, 33)  (  1, 17, 38)  (  1,  8, 30)  (  1, 11, 33)
  0  0.1109      0  0.1791      0  0.6446E-01  1  -10.99      0   4.285    
   (  1,  9, 32)  (  1, 17, 38)  (  1, 11, 33)  (  1, 11, 33)  (  1,  9, 32)
  0   7.500      0  -5.024      0   11.92      0   4.206      0   2.235    
   (  1, 11, 33)  (  1, 11, 33)  (  1,  8, 30)  (  1, 11, 33)  (  1, 10, 32)
  0   21.18      0   2.363      0  -12.45      0   11.73      0  0.7850    
   (  1,  8, 30)  (  1, 11, 33)  (  1,  8, 30)  (  1,  8, 30)  (  1, 11, 33)
  0  -9.610      0   6.896      0   4.688      0  -8.576      0 -0.5785    
   (  1, 12, 33)  (  1,  8, 30)  (  1, 11, 32)  (  1, 12, 33)  (  1,  9, 32)
  0   6.768      0  -4.570      0  0.8625      0 -0.8329      0  -3.568    
   (  1, 11, 32)  (  1, 12, 33)  (  1, 14, 36)  (  1,  8, 31)  (  1, 12, 33)
  0  0.4895      0 -0.4699      0   1.703      0  0.4951      0  0.2287    
   (  1, 11, 33)  (  1,  8, 31)  (  1,  8, 30)  (  1, 11, 33)  (  1,  9, 32)
  0   1.905      0  0.3364      0 -0.1268      0   1.468      0  0.1852    
   (  1,  8, 30)  (  1, 11, 33)  (  1, 24, 45)  (  1,  8, 30)  (  1, 11, 33)
  0 -0.2243      0  0.6869      0  0.9546E-01  1  -6.594      0   2.576    
   (  1, 17, 38)  (  1,  8, 30)  (  1, 11, 33)  (  1, 11, 33)  (  1,  9, 32)
  0   4.567      0  -3.012      0   7.064      0   2.540      0   1.325    
   (  1, 11, 33)  (  1, 11, 33)  (  1,  8, 30)  (  1, 11, 33)  (  1, 10, 32)
  0   12.48      0   1.405      0  -7.195      0   6.997      0  0.4626    
   (  1,  8, 30)  (  1, 11, 33)  (  1,  8, 30)  (  1,  8, 30)  (  1, 11, 33)
  0  -5.646      0   4.007      0   2.700      0  -5.051      0 -0.3384    
   (  1, 12, 33)  (  1,  8, 30)  (  1, 11, 32)  (  1, 12, 33)  (  1,  9, 32)
  0   3.954      0  -2.705      0  0.5103      0 -0.4883      0  -2.132    
   (  1, 11, 32)  (  1, 12, 33)  (  1, 14, 36)  (  1,  8, 31)  (  1, 12, 33)
  0  0.2858      0 -0.2807      0   1.009      0  0.2938      0  0.1383    
   (  1, 11, 33)  (  1,  8, 31)  (  1,  8, 30)  (  1, 11, 33)  (  1,  9, 32)
  0   1.134      0  0.2032      0 -0.7696E-01  1  -3.955      0   1.546    
   (  1,  8, 30)  (  1, 11, 33)  (  1, 24, 45)  (  1, 11, 33)  (  1,  9, 32)
  0   2.770      0  -1.816      0   4.163      0   1.535      0  0.7925    
   (  1, 11, 33)  (  1, 11, 33)  (  1,  8, 30)  (  1, 11, 33)  (  1, 10, 32)
  0   7.333      0  0.8393      0  -4.178      0   4.171      0  0.2730    
   (  1,  8, 30)  (  1, 11, 33)  (  1,  8, 30)  (  1,  8, 30)  (  1, 11, 33)
  0  -3.296      0   2.331      0   1.559      0  -3.100      0 -0.2069    
   (  1, 12, 33)  (  1,  8, 30)  (  1, 11, 32)  (  1, 12, 33)  (  1,  9, 32)
  0   2.394      0  -1.642      0  0.3071      0 -0.2912      0  -1.269    
   (  1, 11, 32)  (  1, 12, 33)  (  1, 14, 36)  (  1,  8, 31)  (  1, 12, 33)
  0  0.1679      0 -0.1650      0  0.6059      0  0.1725      0  0.8332E-01
   (  1, 11, 33)  (  1,  8, 31)  (  1,  8, 30)  (  1, 11, 33)  (  1,  9, 32)
  1  -2.374      0  0.9244      0   1.674      0  -1.104      0   2.429    
   (  1, 11, 33)  (  1,  9, 32)  (  1, 11, 33)  (  1, 11, 33)  (  1,  8, 30)
  0  0.9176      0  0.4758      0   4.288      0  0.5007      0  -2.445    
   (  1, 11, 33)  (  1, 10, 32)  (  1,  8, 30)  (  1, 11, 33)  (  1,  8, 30)
  0   2.485      0  0.1627      0  -1.936      0   1.426      0  0.9663    
   (  1,  8, 30)  (  1, 11, 33)  (  1, 12, 33)  (  1,  8, 30)  (  1, 11, 32)
  0  -1.919      0 -0.1283      0   1.476      0  -1.015      0  0.1887    
   (  1, 12, 33)  (  1,  9, 32)  (  1, 11, 32)  (  1, 12, 33)  (  1, 14, 36)
  0 -0.1768      0 -0.7746      0  0.1009      0 -0.9843E-01  1  -1.426    
   (  1,  8, 31)  (  1, 12, 33)  (  1, 11, 33)  (  1,  8, 31)  (  1, 11, 33)
  0  0.5489      0   1.012      0 -0.6759      0   1.408      0  0.5417    
   (  1,  9, 32)  (  1, 11, 33)  (  1, 11, 33)  (  1,  8, 30)  (  1, 11, 33)
  0  0.2838      0   2.506      0  0.2960      0  -1.441      0   1.481    
   (  1, 10, 32)  (  1,  8, 30)  (  1, 11, 33)  (  1,  8, 30)  (  1,  8, 30)
  0  0.9791E-01  1 -0.8555      0  0.3292      0  0.6056      0 -0.4181    
   (  1, 11, 33)  (  1, 11, 33)  (  1,  9, 32)  (  1, 11, 33)  (  1, 11, 33)
  0  0.8099      0  0.3192      0  0.2006      0   1.764      0  0.2275    
   (  1,  8, 30)  (  1, 11, 33)  (  1, 10, 32)  (  1,  8, 30)  (  1, 11, 33)
  0  -1.100      0   1.330      0  0.9309E-01  1 -0.5133      0  0.2005    
   (  1,  8, 30)  (  1,  8, 30)  (  1, 11, 33)  (  1, 11, 33)  (  1,  9, 32)
  0  0.3653      0 -0.2631      0  0.4922      0  0.1996      0  0.1622    
   (  1, 11, 33)  (  1, 11, 33)  (  1,  8, 30)  (  1, 11, 33)  (  1, 10, 32)
  0   1.452      0  0.1964      0 -0.9551      0   1.256      0  0.8284E-01
   (  1,  8, 30)  (  1, 11, 33)  (  1,  8, 30)  (  1,  8, 30)  (  1, 11, 33)
  1 -0.3080      0  0.1236      0  0.2236      0 -0.1685      0  0.3088    
   (  1, 11, 33)  (  1,  9, 32)  (  1, 11, 33)  (  1, 11, 33)  (  1,  8, 30)
  0  0.1295      0 -0.1185      0   1.350      0  0.1737      0 -0.8913    
   (  1, 11, 33)  (  1, 11, 33)  (  1,  8, 30)  (  1, 11, 33)  (  1,  8, 30)
  0   1.148      0  0.5731E-01  1 -0.1850      0  0.7758E-01  1 -0.1108    
   (  1,  8, 30)  (  1, 11, 33)  (  1, 11, 33)  (  1,  9, 32)  (  1, 11, 33)
  0  0.8520E-01  1 -0.7379E-01
   (  1,  9, 32)  (  1,  9, 32)



 HEAD/DRAWDOWN PRINTOUT FLAG = 1     TOTAL BUDGET PRINTOUT FLAG = 0
 CELL-BY-CELL FLOW TERM FLAG = 1

 OUTPUT FLAGS FOR ALL LAYERS ARE THE SAME:
   HEAD    DRAWDOWN  HEAD  DRAWDOWN
 PRINTOUT  PRINTOUT  SAVE    SAVE
 ----------------------------------
     0         0       1       0
 UBUDSV SAVING "   CONSTANT HEAD" ON UNIT 50 AT TIME STEP  1, STRESS PERIOD    1
 UBUDSV SAVING "FLOW RIGHT FACE " ON UNIT 50 AT TIME STEP  1, STRESS PERIOD    1
 UBUDSV SAVING "FLOW FRONT FACE " ON UNIT 50 AT TIME STEP  1, STRESS PERIOD    1
 UBUDSV SAVING "          DRAINS" ON UNIT 50 AT TIME STEP  1, STRESS PERIOD    1
 UBUDSV SAVING "   RIVER LEAKAGE" ON UNIT 50 AT TIME STEP  1, STRESS PERIOD    1
 UBUDSV SAVING "              ET" ON UNIT 50 AT TIME STEP  1, STRESS PERIOD    1

 HEAD WILL BE SAVED ON UNIT   51 AT END OF TIME STEP    1, STRESS PERIOD    1
1
  VOLUMETRIC BUDGET FOR ENTIRE MODEL AT END OF TIME STEP    1, STRESS PERIOD   1
  ------------------------------------------------------------------------------

     CUMULATIVE VOLUMES      L**3       RATES FOR THIS TIME STEP      L**3/T
     ------------------                 ------------------------

           IN:                                      IN:
           ---                                      ---
             STORAGE =           0.0000               STORAGE =           0.0000
       CONSTANT HEAD =           0.0000         CONSTANT HEAD =           0.0000
              DRAINS =           0.0000                DRAINS =           0.0000
       RIVER LEAKAGE =  3305875456.0000         RIVER LEAKAGE =     2264298.2500
                  ET =           0.0000                    ET =           0.0000
            RECHARGE =  2265988096.0000              RECHARGE =     1552046.6250

            TOTAL IN =  5571863552.0000              TOTAL IN =     3816345.0000

          OUT:                                     OUT:
          ----                                     ----
             STORAGE =           0.0000               STORAGE =           0.0000
       CONSTANT HEAD =           0.0000         CONSTANT HEAD =           0.0000
              DRAINS =  1999653632.0000                DRAINS =     1369625.7500
       RIVER LEAKAGE =  2128411392.0000         RIVER LEAKAGE =     1457816.0000
                  ET =  1181957760.0000                    ET =      809560.1250
            RECHARGE =   262084720.0000              RECHARGE =      179510.0781

           TOTAL OUT =  5572107264.0000             TOTAL OUT =     3816512.0000

            IN - OUT =     -243712.0000              IN - OUT =        -167.0000

 PERCENT DISCREPANCY =          -0.00     PERCENT DISCREPANCY =          -0.00






         TIME SUMMARY AT END OF TIME STEP    1 IN STRESS PERIOD    1
                    SECONDS     MINUTES      HOURS       DAYS        YEARS
                    -----------------------------------------------------------
   TIME STEP LENGTH 1.26144E+08 2.10240E+06  35040.      1460.0      3.9973    
 STRESS PERIOD TIME 1.26144E+08 2.10240E+06  35040.      1460.0      3.9973    
         TOTAL TIME 1.26144E+08 2.10240E+06  35040.      1460.0      3.9973    
1

 Run end date and time (yyyy/mm/dd hh:mm:ss): 2020/01/30 15:06:36
 Elapsed run time:  0.500 Seconds

